 ASGS %StormName%
 %EnsembleID%
1  20.0 1 20 100.0                       ! NFOVER - NONFATAL ERROR OVERRIDE OPTION
0                                        ! NABOUT - ABREVIATED OUTPUT OPTION PARAMETER
%NSCREEN%   ! output frequency (in time steps) to STDOUT or adcirc.log
%IHOT%                                   ! IHOT - HOT START OPTION PARAMETER
2                                        ! ICS - COORDINATE SYSTEM OPTION PARAMETER
111112                                   ! IM - MODEL RUN TYPE: 0,10,20,30 = 2DDI, 1,11,21,31 = 3D(VS), 2 = 3D(DSS)
1                                        ! NOLIBF - NONLINEAR BOTTOM FRICTION OPTION
2                                        ! NOLIFA - OPTION TO INCLUDE FINITE AMPLITUDE TERMS
1                                        ! NOLICA - OPTION TO INCLUDE CONVECTIVE ACCELERATION TERMS
1                                        ! NOLICAT - OPTION TO CONSIDER TIME DERIVATIVE OF CONV ACC TERMS
4                                        ! NWP - Number of nodal attributes
primitive_weighting_in_continuity_equation
mannings_n_at_sea_floor
average_horizontal_eddy_viscosity_in_sea_water_wrt_depth
sea_surface_height_above_geoid
1                                        ! NCOR - VARIABLE CORIOLIS IN SPACE OPTION PARAMETER
1                                        ! NTIP - TIDAL POTENTIAL OPTION PARAMETER
%NWS%                                    ! NWS - WIND STRESS AND BAROMETRIC PRESSURE OPTION PARAMETER
1                                        ! NRAMP - RAMP FUNCTION OPTION
9.80665                                  ! G - ACCELERATION DUE TO GRAVITY - DETERMINES UNITS
-3                                       ! TAU0 - WEIGHTING FACTOR IN GWCE
%DT%   1.0000                            ! DT - TIME STEP (IN SECONDS)
0.00000                                  ! STATIM - STARTING SIMULATION TIME IN DAYS
0.00000                                  ! REFTIME - REFERENCE TIME (IN DAYS) FOR NODAL FACTORS AND EQUILIBRIUM ARGS
%WTIMINC%        ! WTIMINC - met data time increment, Geofactor=1 for NWS=20
%RNDAY%          ! RNDAY - TOTAL LENGTH OF SIMULATION (IN DAYS)
15.00000                                 ! DRAMP - DURATION OF RAMP FUNCTION (IN DAYS)
0 1 0                                    ! TIME WEIGHTING FACTORS FOR THE GWCE EQUATION
0.100000 5 5 0.050000                    ! H0, NODEDRYMIN, NODEWETMIN, VELMIN - MINIMUM WATER DEPTH AND DRYING/WETTING OPTIONS
285 24                                   ! SLAM0, SFEA0 - LONGITUDE AND LATITUDE ON WHICH THE CPP COORDINATE PROJECTION IS CENTERED
0.002500                                 ! FFACTOR - 2DDI BOTTOM FRICTION COEFFICIENT
50.000000                                ! ESLM - SPATIALLY CONSTANT HORIZONTAL EDDY VISCOSITY FOR THE MOMENTUM EQUATIONS
0.0                                      ! CORI - CONSTANT CORIOLIS COEFFICIENT
8                                        ! NTIF - NUMBER OF TIDAL POTENTIAL CONSTITUENTS
K1                                       ! TIPOTAG - NAME OF TIDAL POTENTIAL CONSTITUENT
0.14156500 0.000072921158358 0.736  %K1NF%  %K1EQARG%
K2                                       ! TIPOTAG - NAME OF TIDAL POTENTIAL CONSTITUENT
0.03070400 0.000145842317201 0.693  %K2NF%  %K2EQARG%
M2                                       ! TIPOTAG - NAME OF TIDAL POTENTIAL CONSTITUENT
0.24233400 0.000140518902509 0.693  %M2NF%  %M2EQARG%
N2                                       ! TIPOTAG - NAME OF TIDAL POTENTIAL CONSTITUENT
0.04639800 0.000137879699487 0.693  %N2NF%  %N2EQARG%
O1                                       ! TIPOTAG - NAME OF TIDAL POTENTIAL CONSTITUENT
0.10051400 0.000067597744151 0.695  %O1NF%  %O1EQARG%
P1                                       ! TIPOTAG - NAME OF TIDAL POTENTIAL CONSTITUENT
0.04683400 0.000072522945975 0.706  %P1NF%  %P1EQARG%
Q1                                       ! TIPOTAG - NAME OF TIDAL POTENTIAL CONSTITUENT
0.01925600 0.000064958541129 0.695  %Q1NF%  %Q1EQARG%
S2                                       ! TIPOTAG - NAME OF TIDAL POTENTIAL CONSTITUENT
0.11284100 0.000145444104333 0.693  %S2NF%  %S2EQARG%
8                                        ! NBFR - NUMBER OF PERIODIC FORCING FREQUENCIES ON ELEVATION SPECIFIED BOUNDARIES
K1                                       ! BOUNTAG - FORCING CONSTITUENT NAME
0.000072921158358  %K1NF%  %K1EQARG%
K2                                       ! BOUNTAG - FORCING CONSTITUENT NAME
0.000145842317201  %K2NF%  %K2EQARG%
M2                                       ! BOUNTAG - FORCING CONSTITUENT NAME
0.000140518902509  %M2NF%  %M2EQARG%
N2                                       ! BOUNTAG - FORCING CONSTITUENT NAME
0.000137879699487  %N2NF%  %N2EQARG%
O1                                       ! BOUNTAG - FORCING CONSTITUENT NAME
0.000067597744151  %O1NF%  %O1EQARG%
P1                                       ! BOUNTAG - FORCING CONSTITUENT NAME
0.000072522945975  %P1NF%  %P1EQARG%
Q1                                       ! BOUNTAG - FORCING CONSTITUENT NAME
0.000064958541129  %Q1NF%  %Q1EQARG%
S2                                       ! BOUNTAG - FORCING CONSTITUENT NAME
0.000145444104333  %S2NF%  %S2EQARG%
K1                                       ! EALPHA - FORCING CONSTITUENT NAME AGAIN
0.095375 236.608                         ! EMO, EFA
0.095375 236.608                         ! EMO, EFA
0.095375 236.608                         ! EMO, EFA
0.095375 236.608                         ! EMO, EFA
0.095375 236.608                         ! EMO, EFA
0.095375 236.608                         ! EMO, EFA
0.095375 236.608                         ! EMO, EFA
0.095375 236.608                         ! EMO, EFA
0.095375 236.608                         ! EMO, EFA
0.095375 236.608                         ! EMO, EFA
0.095375 236.608                         ! EMO, EFA
0.095375 236.608                         ! EMO, EFA
0.095375 236.608                         ! EMO, EFA
0.095375 236.608                         ! EMO, EFA
0.095375 236.608                         ! EMO, EFA
0.095375 236.608                         ! EMO, EFA
0.095375 236.608                         ! EMO, EFA
0.095230 236.579                         ! EMO, EFA
0.094979 236.529                         ! EMO, EFA
0.094727 236.479                         ! EMO, EFA
0.094476 236.428                         ! EMO, EFA
0.094224 236.377                         ! EMO, EFA
0.093973 236.326                         ! EMO, EFA
0.093722 236.274                         ! EMO, EFA
0.093471 236.222                         ! EMO, EFA
0.093254 236.177                         ! EMO, EFA
0.093037 236.132                         ! EMO, EFA
0.092821 236.087                         ! EMO, EFA
0.092604 236.041                         ! EMO, EFA
0.092358 235.989                         ! EMO, EFA
0.092112 235.937                         ! EMO, EFA
0.091867 235.884                         ! EMO, EFA
0.091621 235.831                         ! EMO, EFA
0.091400 235.788                         ! EMO, EFA
0.091180 235.748                         ! EMO, EFA
0.090959 235.709                         ! EMO, EFA
0.090739 235.669                         ! EMO, EFA
0.090516 235.628                         ! EMO, EFA
0.090294 235.587                         ! EMO, EFA
0.090000 235.533                         ! EMO, EFA
0.089705 235.479                         ! EMO, EFA
0.089427 235.427                         ! EMO, EFA
0.089154 235.375                         ! EMO, EFA
0.088919 235.331                         ! EMO, EFA
0.088637 235.277                         ! EMO, EFA
0.088372 235.227                         ! EMO, EFA
0.087940 235.143                         ! EMO, EFA
0.087624 235.074                         ! EMO, EFA
0.087449 235.014                         ! EMO, EFA
0.087280 234.956                         ! EMO, EFA
0.087111 234.897                         ! EMO, EFA
0.086935 234.836                         ! EMO, EFA
0.086758 234.774                         ! EMO, EFA
0.086552 234.702                         ! EMO, EFA
0.086346 234.629                         ! EMO, EFA
0.086097 234.540                         ! EMO, EFA
0.085860 234.452                         ! EMO, EFA
0.085670 234.363                         ! EMO, EFA
0.085479 234.274                         ! EMO, EFA
0.085185 234.135                         ! EMO, EFA
0.084891 233.996                         ! EMO, EFA
0.084729 233.918                         ! EMO, EFA
0.084571 233.838                         ! EMO, EFA
0.084349 233.702                         ! EMO, EFA
0.084126 233.565                         ! EMO, EFA
0.083962 233.464                         ! EMO, EFA
0.083798 233.362                         ! EMO, EFA
0.083576 233.223                         ! EMO, EFA
0.083345 233.085                         ! EMO, EFA
0.083082 232.935                         ! EMO, EFA
0.082820 232.783                         ! EMO, EFA
0.082580 232.643                         ! EMO, EFA
0.082339 232.502                         ! EMO, EFA
0.082121 232.384                         ! EMO, EFA
0.081896 232.267                         ! EMO, EFA
0.081672 232.150                         ! EMO, EFA
0.081448 232.032                         ! EMO, EFA
0.081224 231.913                         ! EMO, EFA
0.081001 231.794                         ! EMO, EFA
0.080765 231.676                         ! EMO, EFA
0.080526 231.558                         ! EMO, EFA
0.080260 231.426                         ! EMO, EFA
0.079994 231.292                         ! EMO, EFA
0.079715 231.151                         ! EMO, EFA
0.079428 231.003                         ! EMO, EFA
0.079124 230.842                         ! EMO, EFA
0.078820 230.680                         ! EMO, EFA
0.078451 230.481                         ! EMO, EFA
0.078082 230.280                         ! EMO, EFA
0.077698 230.068                         ! EMO, EFA
0.077314 229.852                         ! EMO, EFA
0.077045 229.700                         ! EMO, EFA
0.076777 229.547                         ! EMO, EFA
0.076521 229.399                         ! EMO, EFA
0.076218 229.207                         ! EMO, EFA
0.075899 229.000                         ! EMO, EFA
0.075608 228.809                         ! EMO, EFA
0.075342 228.632                         ! EMO, EFA
0.075066 228.448                         ! EMO, EFA
0.074765 228.253                         ! EMO, EFA
0.074441 228.047                         ! EMO, EFA
0.074137 227.851                         ! EMO, EFA
0.073876 227.681                         ! EMO, EFA
0.073627 227.518                         ! EMO, EFA
0.073312 227.300                         ! EMO, EFA
0.073055 227.118                         ! EMO, EFA
0.072793 226.931                         ! EMO, EFA
0.072537 226.746                         ! EMO, EFA
0.072267 226.549                         ! EMO, EFA
0.072018 226.354                         ! EMO, EFA
0.071633 226.037                         ! EMO, EFA
0.071233 225.701                         ! EMO, EFA
0.070844 225.371                         ! EMO, EFA
0.070432 225.024                         ! EMO, EFA
0.070023 224.672                         ! EMO, EFA
0.069619 224.314                         ! EMO, EFA
0.069236 223.938                         ! EMO, EFA
0.068856 223.558                         ! EMO, EFA
0.068479 223.173                         ! EMO, EFA
0.068098 222.797                         ! EMO, EFA
0.067720 222.417                         ! EMO, EFA
0.067309 221.997                         ! EMO, EFA
0.066989 221.656                         ! EMO, EFA
0.066639 221.277                         ! EMO, EFA
0.066382 220.994                         ! EMO, EFA
0.066122 220.706                         ! EMO, EFA
0.065839 220.404                         ! EMO, EFA
0.065558 220.100                         ! EMO, EFA
0.065109 219.604                         ! EMO, EFA
0.064737 219.181                         ! EMO, EFA
0.064397 218.785                         ! EMO, EFA
0.063998 218.311                         ! EMO, EFA
0.063574 217.813                         ! EMO, EFA
0.063216 217.389                         ! EMO, EFA
0.062786 216.867                         ! EMO, EFA
0.062393 216.334                         ! EMO, EFA
0.061994 215.777                         ! EMO, EFA
0.061606 215.253                         ! EMO, EFA
0.061144 214.667                         ! EMO, EFA
0.060645 214.008                         ! EMO, EFA
0.060261 213.426                         ! EMO, EFA
0.059934 212.917                         ! EMO, EFA
0.059590 212.393                         ! EMO, EFA
0.059228 211.852                         ! EMO, EFA
0.058872 211.305                         ! EMO, EFA
0.058535 210.764                         ! EMO, EFA
0.058208 210.222                         ! EMO, EFA
0.057887 209.674                         ! EMO, EFA
0.057592 209.135                         ! EMO, EFA
0.057330 208.643                         ! EMO, EFA
0.057071 208.145                         ! EMO, EFA
0.056804 207.628                         ! EMO, EFA
0.056541 207.105                         ! EMO, EFA
0.056283 206.578                         ! EMO, EFA
0.056049 206.089                         ! EMO, EFA
0.055819 205.597                         ! EMO, EFA
0.055593 205.101                         ! EMO, EFA
0.055311 204.474                         ! EMO, EFA
0.055035 203.839                         ! EMO, EFA
0.054776 203.204                         ! EMO, EFA
0.054536 202.572                         ! EMO, EFA
0.054302 201.935                         ! EMO, EFA
0.054096 201.274                         ! EMO, EFA
0.053899 200.606                         ! EMO, EFA
0.053702 199.950                         ! EMO, EFA
0.053496 199.300                         ! EMO, EFA
0.053297 198.645                         ! EMO, EFA
0.053126 197.996                         ! EMO, EFA
0.052964 197.344                         ! EMO, EFA
0.052801 196.675                         ! EMO, EFA
0.052636 195.986                         ! EMO, EFA
0.052478 195.294                         ! EMO, EFA
0.052354 194.644                         ! EMO, EFA
0.052240 194.010                         ! EMO, EFA
0.052140 193.376                         ! EMO, EFA
0.052057 192.743                         ! EMO, EFA
0.051979 192.107                         ! EMO, EFA
0.051898 191.475                         ! EMO, EFA
0.051823 190.841                         ! EMO, EFA
0.051762 190.208                         ! EMO, EFA
0.051718 189.578                         ! EMO, EFA
0.051681 188.964                         ! EMO, EFA
0.051641 188.384                         ! EMO, EFA
0.051605 187.807                         ! EMO, EFA
0.051592 187.219                         ! EMO, EFA
0.051625 186.605                         ! EMO, EFA
0.051664 185.993                         ! EMO, EFA
0.051675 185.405                         ! EMO, EFA
0.051677 184.828                         ! EMO, EFA
0.051689 184.207                         ! EMO, EFA
0.051728 183.621                         ! EMO, EFA
0.051772 183.035                         ! EMO, EFA
0.051842 182.448                         ! EMO, EFA
0.051924 181.862                         ! EMO, EFA
0.052006 181.277                         ! EMO, EFA
0.052088 180.693                         ! EMO, EFA
0.052176 180.112                         ! EMO, EFA
0.052249 179.610                         ! EMO, EFA
0.052327 179.111                         ! EMO, EFA
0.052420 178.626                         ! EMO, EFA
0.052534 178.164                         ! EMO, EFA
0.052651 177.703                         ! EMO, EFA
0.052765 177.212                         ! EMO, EFA
0.052880 176.714                         ! EMO, EFA
0.052997 176.233                         ! EMO, EFA
0.053097 175.856                         ! EMO, EFA
0.053200 175.480                         ! EMO, EFA
0.053312 175.106                         ! EMO, EFA
0.053443 174.731                         ! EMO, EFA
0.053578 174.358                         ! EMO, EFA
0.053702 173.986                         ! EMO, EFA
0.053804 173.614                         ! EMO, EFA
0.053909 173.244                         ! EMO, EFA
0.054050 172.862                         ! EMO, EFA
0.054227 172.499                         ! EMO, EFA
0.054407 172.138                         ! EMO, EFA
0.054563 171.800                         ! EMO, EFA
0.054707 171.474                         ! EMO, EFA
0.054853 171.149                         ! EMO, EFA
0.054999 170.822                         ! EMO, EFA
0.055146 170.496                         ! EMO, EFA
0.055322 170.140                         ! EMO, EFA
0.055524 169.810                         ! EMO, EFA
0.055729 169.483                         ! EMO, EFA
0.055929 169.157                         ! EMO, EFA
0.056130 168.834                         ! EMO, EFA
0.056320 168.524                         ! EMO, EFA
0.056485 168.235                         ! EMO, EFA
0.056651 167.948                         ! EMO, EFA
0.056825 167.695                         ! EMO, EFA
0.057004 167.444                         ! EMO, EFA
0.057183 167.198                         ! EMO, EFA
0.057387 166.948                         ! EMO, EFA
0.057580 166.715                         ! EMO, EFA
0.057757 166.497                         ! EMO, EFA
0.057956 166.247                         ! EMO, EFA
0.058167 166.008                         ! EMO, EFA
0.058346 165.827                         ! EMO, EFA
0.058525 165.646                         ! EMO, EFA
0.058676 165.494                         ! EMO, EFA
0.058820 165.350                         ! EMO, EFA
0.058963 165.207                         ! EMO, EFA
0.059072 165.096                         ! EMO, EFA
0.059180 164.985                         ! EMO, EFA
0.059308 164.869                         ! EMO, EFA
0.059459 164.755                         ! EMO, EFA
0.059611 164.643                         ! EMO, EFA
0.059736 164.583                         ! EMO, EFA
0.059851 164.542                         ! EMO, EFA
0.059971 164.496                         ! EMO, EFA
0.060125 164.419                         ! EMO, EFA
0.060279 164.342                         ! EMO, EFA
0.060416 164.263                         ! EMO, EFA
0.060534 164.183                         ! EMO, EFA
0.060653 164.105                         ! EMO, EFA
0.060764 164.030                         ! EMO, EFA
0.060824 163.990                         ! EMO, EFA
0.060896 163.942                         ! EMO, EFA
0.061011 163.667                         ! EMO, EFA
0.061172 163.172                         ! EMO, EFA
0.061299 162.791                         ! EMO, EFA
0.061423 162.430                         ! EMO, EFA
0.061013 161.637                         ! EMO, EFA
0.055706 156.674                         ! EMO, EFA
0.051636 151.756                         ! EMO, EFA
0.048219 146.424                         ! EMO, EFA
0.045188 140.117                         ! EMO, EFA
0.043955 135.052                         ! EMO, EFA
0.043758 132.425                         ! EMO, EFA
0.043646 129.355                         ! EMO, EFA
0.043657 126.373                         ! EMO, EFA
0.043798 123.210                         ! EMO, EFA
0.043727 119.340                         ! EMO, EFA
0.043530 114.612                         ! EMO, EFA
0.043554 111.783                         ! EMO, EFA
0.043684 108.964                         ! EMO, EFA
0.043919 106.168                         ! EMO, EFA
0.044257 103.409                         ! EMO, EFA
0.044509 100.060                         ! EMO, EFA
0.044848 96.499                          ! EMO, EFA
0.045358 93.005                          ! EMO, EFA
0.046032 89.601                          ! EMO, EFA
0.046814 86.481                          ! EMO, EFA
0.047705 83.550                          ! EMO, EFA
0.048660 80.878                          ! EMO, EFA
0.049022 79.962                          ! EMO, EFA
0.049021 79.962                          ! EMO, EFA
0.049021 79.962                          ! EMO, EFA
0.049021 79.962                          ! EMO, EFA
0.049020 79.962                          ! EMO, EFA
0.049020 79.962                          ! EMO, EFA
0.049020 79.962                          ! EMO, EFA
K2                                       ! EALPHA - FORCING CONSTITUENT NAME AGAIN
0.045311 236.153                         ! EMO, EFA
0.045311 236.153                         ! EMO, EFA
0.045311 236.153                         ! EMO, EFA
0.045310 236.153                         ! EMO, EFA
0.045310 236.153                         ! EMO, EFA
0.045310 236.153                         ! EMO, EFA
0.045310 236.153                         ! EMO, EFA
0.045310 236.153                         ! EMO, EFA
0.045310 236.153                         ! EMO, EFA
0.045310 236.153                         ! EMO, EFA
0.045310 236.153                         ! EMO, EFA
0.045310 236.153                         ! EMO, EFA
0.045310 236.153                         ! EMO, EFA
0.045310 236.153                         ! EMO, EFA
0.045310 236.153                         ! EMO, EFA
0.045310 236.153                         ! EMO, EFA
0.045310 236.153                         ! EMO, EFA
0.045063 236.110                         ! EMO, EFA
0.044631 236.032                         ! EMO, EFA
0.044200 235.954                         ! EMO, EFA
0.043768 235.873                         ! EMO, EFA
0.043337 235.791                         ! EMO, EFA
0.042906 235.708                         ! EMO, EFA
0.042475 235.623                         ! EMO, EFA
0.042044 235.535                         ! EMO, EFA
0.041672 235.459                         ! EMO, EFA
0.041301 235.381                         ! EMO, EFA
0.040929 235.302                         ! EMO, EFA
0.040557 235.221                         ! EMO, EFA
0.040135 235.127                         ! EMO, EFA
0.039714 235.032                         ! EMO, EFA
0.039292 234.934                         ! EMO, EFA
0.038870 234.834                         ! EMO, EFA
0.038487 234.747                         ! EMO, EFA
0.038100 234.663                         ! EMO, EFA
0.037714 234.577                         ! EMO, EFA
0.037327 234.490                         ! EMO, EFA
0.036938 234.400                         ! EMO, EFA
0.036549 234.307                         ! EMO, EFA
0.036033 234.182                         ! EMO, EFA
0.035517 234.053                         ! EMO, EFA
0.035029 233.928                         ! EMO, EFA
0.034552 233.802                         ! EMO, EFA
0.034139 233.690                         ! EMO, EFA
0.033646 233.553                         ! EMO, EFA
0.033182 233.420                         ! EMO, EFA
0.032425 233.194                         ! EMO, EFA
0.031868 233.027                         ! EMO, EFA
0.031549 232.944                         ! EMO, EFA
0.031240 232.862                         ! EMO, EFA
0.030931 232.779                         ! EMO, EFA
0.030607 232.690                         ! EMO, EFA
0.030284 232.599                         ! EMO, EFA
0.029906 232.490                         ! EMO, EFA
0.029529 232.379                         ! EMO, EFA
0.029072 232.240                         ! EMO, EFA
0.028616 232.112                         ! EMO, EFA
0.028139 232.047                         ! EMO, EFA
0.027661 231.980                         ! EMO, EFA
0.026923 231.871                         ! EMO, EFA
0.026186 231.755                         ! EMO, EFA
0.025777 231.689                         ! EMO, EFA
0.025387 231.641                         ! EMO, EFA
0.024865 231.658                         ! EMO, EFA
0.024343 231.675                         ! EMO, EFA
0.023956 231.689                         ! EMO, EFA
0.023569 231.703                         ! EMO, EFA
0.023045 231.723                         ! EMO, EFA
0.022556 231.785                         ! EMO, EFA
0.022045 231.895                         ! EMO, EFA
0.021535 232.010                         ! EMO, EFA
0.021066 232.121                         ! EMO, EFA
0.020596 232.237                         ! EMO, EFA
0.020273 232.357                         ! EMO, EFA
0.019990 232.490                         ! EMO, EFA
0.019707 232.626                         ! EMO, EFA
0.019424 232.766                         ! EMO, EFA
0.019141 232.911                         ! EMO, EFA
0.018858 233.059                         ! EMO, EFA
0.018586 233.203                         ! EMO, EFA
0.018315 233.349                         ! EMO, EFA
0.018015 233.517                         ! EMO, EFA
0.017714 233.690                         ! EMO, EFA
0.017398 233.878                         ! EMO, EFA
0.017098 234.054                         ! EMO, EFA
0.016815 234.211                         ! EMO, EFA
0.016532 234.373                         ! EMO, EFA
0.016187 234.579                         ! EMO, EFA
0.015842 234.793                         ! EMO, EFA
0.015548 234.937                         ! EMO, EFA
0.015257 235.082                         ! EMO, EFA
0.015053 235.186                         ! EMO, EFA
0.014850 235.294                         ! EMO, EFA
0.014655 235.400                         ! EMO, EFA
0.014469 235.566                         ! EMO, EFA
0.014282 235.755                         ! EMO, EFA
0.014112 235.931                         ! EMO, EFA
0.013955 236.098                         ! EMO, EFA
0.013793 236.274                         ! EMO, EFA
0.013580 236.489                         ! EMO, EFA
0.013331 236.738                         ! EMO, EFA
0.013097 236.982                         ! EMO, EFA
0.012896 237.198                         ! EMO, EFA
0.012703 237.412                         ! EMO, EFA
0.012458 237.687                         ! EMO, EFA
0.012257 237.921                         ! EMO, EFA
0.012052 238.166                         ! EMO, EFA
0.011851 238.416                         ! EMO, EFA
0.011639 238.688                         ! EMO, EFA
0.011413 238.978                         ! EMO, EFA
0.011035 239.482                         ! EMO, EFA
0.010639 240.049                         ! EMO, EFA
0.010259 240.649                         ! EMO, EFA
0.009870 241.348                         ! EMO, EFA
0.009483 242.105                         ! EMO, EFA
0.009094 242.932                         ! EMO, EFA
0.008682 243.883                         ! EMO, EFA
0.008272 244.928                         ! EMO, EFA
0.007866 246.082                         ! EMO, EFA
0.007480 247.405                         ! EMO, EFA
0.007099 248.872                         ! EMO, EFA
0.006688 250.668                         ! EMO, EFA
0.006385 252.385                         ! EMO, EFA
0.006060 254.487                         ! EMO, EFA
0.005826 256.193                         ! EMO, EFA
0.005597 258.033                         ! EMO, EFA
0.005375 259.992                         ! EMO, EFA
0.005160 262.118                         ! EMO, EFA
0.004830 265.939                         ! EMO, EFA
0.004570 269.621                         ! EMO, EFA
0.004348 273.423                         ! EMO, EFA
0.004114 278.428                         ! EMO, EFA
0.003911 284.285                         ! EMO, EFA
0.003777 289.665                         ! EMO, EFA
0.003662 296.650                         ! EMO, EFA
0.003621 303.626                         ! EMO, EFA
0.003635 310.868                         ! EMO, EFA
0.003697 317.404                         ! EMO, EFA
0.003813 324.209                         ! EMO, EFA
0.003999 331.148                         ! EMO, EFA
0.004194 336.356                         ! EMO, EFA
0.004387 340.456                         ! EMO, EFA
0.004610 344.136                         ! EMO, EFA
0.004859 347.407                         ! EMO, EFA
0.005121 350.350                         ! EMO, EFA
0.005375 352.924                         ! EMO, EFA
0.005630 355.241                         ! EMO, EFA
0.005894 357.353                         ! EMO, EFA
0.006178 359.142                         ! EMO, EFA
0.006441 0.622                           ! EMO, EFA
0.006707 1.983                           ! EMO, EFA
0.006934 3.191                           ! EMO, EFA
0.007164 4.322                           ! EMO, EFA
0.007396 5.383                           ! EMO, EFA
0.007657 6.287                           ! EMO, EFA
0.007919 7.131                           ! EMO, EFA
0.008183 7.920                           ! EMO, EFA
0.008461 8.825                           ! EMO, EFA
0.008739 9.673                           ! EMO, EFA
0.009032 10.458                          ! EMO, EFA
0.009346 11.177                          ! EMO, EFA
0.009661 11.849                          ! EMO, EFA
0.009944 12.468                          ! EMO, EFA
0.010224 13.051                          ! EMO, EFA
0.010503 13.602                          ! EMO, EFA
0.010788 14.135                          ! EMO, EFA
0.011074 14.641                          ! EMO, EFA
0.011358 15.103                          ! EMO, EFA
0.011644 15.541                          ! EMO, EFA
0.011928 15.925                          ! EMO, EFA
0.012210 16.251                          ! EMO, EFA
0.012492 16.563                          ! EMO, EFA
0.012777 16.854                          ! EMO, EFA
0.013055 17.125                          ! EMO, EFA
0.013312 17.398                          ! EMO, EFA
0.013550 17.671                          ! EMO, EFA
0.013787 17.936                          ! EMO, EFA
0.014025 18.140                          ! EMO, EFA
0.014263 18.337                          ! EMO, EFA
0.014500 18.533                          ! EMO, EFA
0.014738 18.730                          ! EMO, EFA
0.014969 18.916                          ! EMO, EFA
0.015199 19.109                          ! EMO, EFA