neflga_v12 %StormName%
%EnsembleID% 
1 20.0 1 20 100.0                        ! NFOVER - NONFATAL ERROR OVERRIDE OPTION
0                                        ! NABOUT - ABREVIATED OUTPUT OPTION PARAMETER
%NSCREEN%   ! output frequency (in time steps) to STDOUT or adcirc.log
%IHOT%                                       ! IHOT - HOT START OPTION PARAMETER
2                                        ! ICS - COORDINATE SYSTEM OPTION PARAMETER
211112                                   ! IM - MODEL RUN TYPE: 0,10,20,30 = 2DDI, 1,11,21,31 = 3D(VS), 2 = 3D(DSS)
1                                        ! NOLIBF - NONLINEAR BOTTOM FRICTION OPTION
2                                        ! NOLIFA - OPTION TO INCLUDE FINITE AMPLITUDE TERMS
1                                        ! NOLICA - OPTION TO INCLUDE CONVECTIVE ACCELERATION TERMS
1                                        ! NOLICAT - OPTION TO CONSIDER TIME DERIVATIVE OF CONV ACC TERMS
6                                        ! NWP - Number of nodal attributes
primitive_weighting_in_continuity_equation
mannings_n_at_sea_floor
average_horizontal_eddy_viscosity_in_sea_water_wrt_depth
sea_surface_height_above_geoid
surface_canopy_coefficient
surface_directional_effective_roughness_length
1                                        ! NCOR - VARIABLE CORIOLIS IN SPACE OPTION PARAMETER
1                                        ! NTIP - TIDAL POTENTIAL OPTION PARAMETER
%NWS%                         ! NWS - WIND STRESS AND BAROMETRIC PRESSURE OPTION PARAMETER
1                                        ! NRAMP - RAMP FUNCTION OPTION
9.80665                                  ! G - ACCELERATION DUE TO GRAVITY - DETERMINES UNITS
-3                                       ! TAU0 - WEIGHTING FACTOR IN GWCE
%DT%                          ! DT - TIME STEP (IN SECONDS)
0.00000                                  ! STATIM - STARTING SIMULATION TIME IN DAYS
0.00000                                  ! REFTIME - REFERENCE TIME (IN DAYS) FOR NODAL FACTORS AND EQUILIBRIUM ARGS
%WTIMINC%                      ! WTIMINC
%RNDAY%                        ! RNDAY - TOTAL LENGTH OF SIMULATION (IN DAYS)
15.00000                                 ! DRAMP - DURATION OF RAMP FUNCTION (IN DAYS)
0 1 0                                    ! TIME WEIGHTING FACTORS FOR THE GWCE EQUATION
0.100000 5 5 0.050000                    ! H0, NODEDRYMIN, NODEWETMIN, VELMIN - MINIMUM WATER DEPTH AND DRYING/WETTING OPTIONS
285 24                                   ! SLAM0, SFEA0 - LONGITUDE AND LATITUDE ON WHICH THE CPP COORDINATE PROJECTION IS CENTERED
0.000                                 ! FFACTOR - 2DDI BOTTOM FRICTION COEFFICIENT
-10.000000                                ! ESLM - SPATIALLY CONSTANT HORIZONTAL EDDY VISCOSITY FOR THE MOMENTUM EQUATIONS
0.0                                      ! CORI - CONSTANT CORIOLIS COEFFICIENT
8                                        ! NTIF - NUMBER OF TIDAL POTENTIAL CONSTITUENTS
K1                                       ! TIPOTAG - NAME OF TIDAL POTENTIAL CONSTITUENT
0.14156500 0.000072921158358 0.736 %K1NF%  %K1EQARG%   ! TPK, AMIGT, ETRF, FFT, FACET - CONSTITUENT PROPERTIES
K2                                       ! TIPOTAG - NAME OF TIDAL POTENTIAL CONSTITUENT
0.03070400 0.000145842317201 0.693 %K2NF%  %K2EQARG%   ! TPK, AMIGT, ETRF, FFT, FACET - CONSTITUENT PROPERTIES
M2                                       ! TIPOTAG - NAME OF TIDAL POTENTIAL CONSTITUENT
0.24233400 0.000140518902509 0.693  %M2NF%  %M2EQARG%  ! TPK, AMIGT, ETRF, FFT, FACET - CONSTITUENT PROPERTIES
N2                                       ! TIPOTAG - NAME OF TIDAL POTENTIAL CONSTITUENT
0.04639800 0.000137879699487 0.693  %N2NF%  %N2EQARG%  ! TPK, AMIGT, ETRF, FFT, FACET - CONSTITUENT PROPERTIES
O1                                       ! TIPOTAG - NAME OF TIDAL POTENTIAL CONSTITUENT
0.10051400 0.000067597744151 0.695  %O1NF%  %O1EQARG%  ! TPK, AMIGT, ETRF, FFT, FACET - CONSTITUENT PROPERTIES
P1                                       ! TIPOTAG - NAME OF TIDAL POTENTIAL CONSTITUENT
0.04683400 0.000072522945975 0.706  %P1NF%  %P1EQARG%  ! TPK, AMIGT, ETRF, FFT, FACET - CONSTITUENT PROPERTIES
Q1                                       ! TIPOTAG - NAME OF TIDAL POTENTIAL CONSTITUENT
0.01925600 0.000064958541129 0.695  %Q1NF%  %Q1EQARG%  ! TPK, AMIGT, ETRF, FFT, FACET - CONSTITUENT PROPERTIES
S2                                       ! TIPOTAG - NAME OF TIDAL POTENTIAL CONSTITUENT
0.11284100 0.000145444104333 0.693  %S2NF%  %S2EQARG%  ! TPK, AMIGT, ETRF, FFT, FACET - CONSTITUENT PROPERTIES
8                                        ! NBFR - NUMBER OF PERIODIC FORCING FREQUENCIES ON ELEVATION SPECIFIED BOUNDARIES
K1                                       ! BOUNTAG - FORCING CONSTITUENT NAME
0.000072921158358 %K1NF%  %K1EQARG%   ! TPK, AMIGT, ETRF, FFT, FACET - CONSTITUENT PROPERTIES
K2                                       ! BOUNTAG - FORCING CONSTITUENT NAME
0.000145842317201 %K2NF%  %K2EQARG%   ! TPK, AMIGT, ETRF, FFT, FACET - CONSTITUENT PROPERTIES
M2                                       ! BOUNTAG - FORCING CONSTITUENT NAME
0.000140518902509 %M2NF%  %M2EQARG%  ! TPK, AMIGT, ETRF, FFT, FACET - CONSTITUENT PROPERTIES 
N2                                       ! BOUNTAG - FORCING CONSTITUENT NAME
0.000137879699487 %N2NF%  %N2EQARG%  ! TPK, AMIGT, ETRF, FFT, FACET - CONSTITUENT PROPERTIES
O1                                       ! BOUNTAG - FORCING CONSTITUENT NAME
0.000067597744151 %O1NF%  %O1EQARG%  ! TPK, AMIGT, ETRF, FFT, FACET - CONSTITUENT PROPERTIES
P1                                       ! BOUNTAG - FORCING CONSTITUENT NAME
0.000072522945975 %P1NF%  %P1EQARG%  ! TPK, AMIGT, ETRF, FFT, FACET - CONSTITUENT PROPERTIES
Q1                                       ! BOUNTAG - FORCING CONSTITUENT NAME
0.000064958541129 %Q1NF%  %Q1EQARG%  ! TPK, AMIGT, ETRF, FFT, FACET - CONSTITUENT PROPERTIES
S2                                       ! BOUNTAG - FORCING CONSTITUENT NAME
0.000145444104333 %S2NF%  %S2EQARG%  ! TPK, AMIGT, ETRF, FFT, FACET - CONSTITUENT PROPERTIES
K1                                       ! EALPHA - FORCING CONSTITUENT NAME AGAIN
0.095378 236.608                         ! EMO, EFA
0.095378 236.608                         ! EMO, EFA
0.095377 236.608                         ! EMO, EFA
0.095377 236.608                         ! EMO, EFA
0.095377 236.608                         ! EMO, EFA
0.095377 236.608                         ! EMO, EFA
0.095377 236.608                         ! EMO, EFA
0.095377 236.608                         ! EMO, EFA
0.095377 236.608                         ! EMO, EFA
0.095377 236.608                         ! EMO, EFA
0.095377 236.608                         ! EMO, EFA
0.095377 236.608                         ! EMO, EFA
0.095377 236.608                         ! EMO, EFA
0.095377 236.608                         ! EMO, EFA
0.095377 236.608                         ! EMO, EFA
0.095377 236.608                         ! EMO, EFA
0.095377 236.608                         ! EMO, EFA
0.095232 236.579                         ! EMO, EFA
0.094980 236.529                         ! EMO, EFA
0.094729 236.479                         ! EMO, EFA
0.094477 236.428                         ! EMO, EFA
0.094226 236.377                         ! EMO, EFA
0.093974 236.326                         ! EMO, EFA
0.093723 236.274                         ! EMO, EFA
0.093472 236.222                         ! EMO, EFA
0.093255 236.177                         ! EMO, EFA
0.093039 236.132                         ! EMO, EFA
0.092822 236.087                         ! EMO, EFA
0.092606 236.041                         ! EMO, EFA
0.092360 235.989                         ! EMO, EFA
0.092114 235.937                         ! EMO, EFA
0.091869 235.884                         ! EMO, EFA
0.091623 235.831                         ! EMO, EFA
0.091402 235.788                         ! EMO, EFA
0.091182 235.748                         ! EMO, EFA
0.090961 235.708                         ! EMO, EFA
0.090741 235.668                         ! EMO, EFA
0.090518 235.628                         ! EMO, EFA
0.090296 235.587                         ! EMO, EFA
0.090002 235.533                         ! EMO, EFA
0.089707 235.478                         ! EMO, EFA
0.089429 235.426                         ! EMO, EFA
0.089157 235.375                         ! EMO, EFA
0.088921 235.331                         ! EMO, EFA
0.088640 235.277                         ! EMO, EFA
0.088375 235.226                         ! EMO, EFA
0.087942 235.143                         ! EMO, EFA
0.087627 235.074                         ! EMO, EFA
0.087453 235.014                         ! EMO, EFA
0.087284 234.955                         ! EMO, EFA
0.087114 234.897                         ! EMO, EFA
0.086937 234.835                         ! EMO, EFA
0.086761 234.773                         ! EMO, EFA
0.086554 234.701                         ! EMO, EFA
0.086348 234.628                         ! EMO, EFA
0.086099 234.539                         ! EMO, EFA
0.085862 234.451                         ! EMO, EFA
0.085671 234.362                         ! EMO, EFA
0.085481 234.273                         ! EMO, EFA
0.085186 234.135                         ! EMO, EFA
0.084892 233.995                         ! EMO, EFA
0.084730 233.917                         ! EMO, EFA
0.084572 233.837                         ! EMO, EFA
0.084349 233.701                         ! EMO, EFA
0.084127 233.564                         ! EMO, EFA
0.083963 233.463                         ! EMO, EFA
0.083798 233.361                         ! EMO, EFA
0.083577 233.222                         ! EMO, EFA
0.083346 233.085                         ! EMO, EFA
0.083083 232.934                         ! EMO, EFA
0.082821 232.782                         ! EMO, EFA
0.082580 232.642                         ! EMO, EFA
0.082340 232.501                         ! EMO, EFA
0.082122 232.383                         ! EMO, EFA
0.081897 232.267                         ! EMO, EFA
0.081672 232.149                         ! EMO, EFA
0.081448 232.031                         ! EMO, EFA
0.081225 231.912                         ! EMO, EFA
0.081001 231.793                         ! EMO, EFA
0.080765 231.675                         ! EMO, EFA
0.080526 231.557                         ! EMO, EFA
0.080260 231.425                         ! EMO, EFA
0.079995 231.291                         ! EMO, EFA
0.079716 231.150                         ! EMO, EFA
0.079428 231.002                         ! EMO, EFA
0.079124 230.841                         ! EMO, EFA
0.078821 230.679                         ! EMO, EFA
0.078451 230.480                         ! EMO, EFA
0.078083 230.279                         ! EMO, EFA
0.077699 230.067                         ! EMO, EFA
0.077314 229.851                         ! EMO, EFA
0.077046 229.699                         ! EMO, EFA
0.076778 229.546                         ! EMO, EFA
0.076521 229.398                         ! EMO, EFA
0.076218 229.206                         ! EMO, EFA
0.075899 228.999                         ! EMO, EFA
0.075609 228.808                         ! EMO, EFA
0.075342 228.631                         ! EMO, EFA
0.075067 228.447                         ! EMO, EFA
0.074765 228.252                         ! EMO, EFA
0.074441 228.046                         ! EMO, EFA
0.074137 227.850                         ! EMO, EFA
0.073877 227.680                         ! EMO, EFA
0.073628 227.517                         ! EMO, EFA
0.073313 227.299                         ! EMO, EFA
0.073055 227.117                         ! EMO, EFA
0.072794 226.930                         ! EMO, EFA
0.072537 226.745                         ! EMO, EFA
0.072268 226.548                         ! EMO, EFA
0.072019 226.353                         ! EMO, EFA
0.071634 226.036                         ! EMO, EFA
0.071234 225.700                         ! EMO, EFA
0.070844 225.370                         ! EMO, EFA
0.070433 225.022                         ! EMO, EFA
0.070024 224.670                         ! EMO, EFA
0.069620 224.312                         ! EMO, EFA
0.069237 223.936                         ! EMO, EFA
0.068857 223.556                         ! EMO, EFA
0.068480 223.171                         ! EMO, EFA
0.068099 222.795                         ! EMO, EFA
0.067721 222.416                         ! EMO, EFA
0.067311 221.995                         ! EMO, EFA
0.066990 221.654                         ! EMO, EFA
0.066641 221.275                         ! EMO, EFA
0.066384 220.992                         ! EMO, EFA
0.066123 220.704                         ! EMO, EFA
0.065841 220.402                         ! EMO, EFA
0.065560 220.098                         ! EMO, EFA
0.065111 219.602                         ! EMO, EFA
0.064739 219.179                         ! EMO, EFA
0.064399 218.783                         ! EMO, EFA
0.064000 218.309                         ! EMO, EFA
0.063576 217.811                         ! EMO, EFA
0.063218 217.386                         ! EMO, EFA
0.062788 216.865                         ! EMO, EFA
0.062395 216.331                         ! EMO, EFA
0.061997 215.774                         ! EMO, EFA
0.061608 215.250                         ! EMO, EFA
0.061147 214.665                         ! EMO, EFA
0.060648 214.006                         ! EMO, EFA
0.060263 213.424                         ! EMO, EFA
0.059937 212.915                         ! EMO, EFA
0.059592 212.390                         ! EMO, EFA
0.059231 211.849                         ! EMO, EFA
0.058875 211.302                         ! EMO, EFA
0.058538 210.761                         ! EMO, EFA
0.058211 210.219                         ! EMO, EFA
0.057890 209.671                         ! EMO, EFA
0.057595 209.132                         ! EMO, EFA
0.057333 208.640                         ! EMO, EFA
0.057074 208.142                         ! EMO, EFA
0.056807 207.625                         ! EMO, EFA
0.056545 207.102                         ! EMO, EFA
0.056287 206.575                         ! EMO, EFA
0.056053 206.086                         ! EMO, EFA
0.055823 205.594                         ! EMO, EFA
0.055597 205.098                         ! EMO, EFA
0.055315 204.471                         ! EMO, EFA
0.055039 203.836                         ! EMO, EFA
0.054779 203.201                         ! EMO, EFA
0.054540 202.570                         ! EMO, EFA
0.054306 201.932                         ! EMO, EFA
0.054100 201.272                         ! EMO, EFA
0.053903 200.604                         ! EMO, EFA
0.053706 199.948                         ! EMO, EFA
0.053500 199.298                         ! EMO, EFA
0.053301 198.643                         ! EMO, EFA
0.053130 197.994                         ! EMO, EFA
0.052968 197.341                         ! EMO, EFA
0.052805 196.673                         ! EMO, EFA
0.052640 195.984                         ! EMO, EFA
0.052483 195.292                         ! EMO, EFA
0.052359 194.642                         ! EMO, EFA
0.052245 194.008                         ! EMO, EFA
0.052146 193.374                         ! EMO, EFA
0.052062 192.741                         ! EMO, EFA
0.051984 192.106                         ! EMO, EFA
0.051903 191.473                         ! EMO, EFA
0.051828 190.839                         ! EMO, EFA
0.051768 190.207                         ! EMO, EFA
0.051723 189.576                         ! EMO, EFA
0.051686 188.963                         ! EMO, EFA
0.051647 188.383                         ! EMO, EFA
0.051611 187.806                         ! EMO, EFA
0.051598 187.217                         ! EMO, EFA
0.051631 186.604                         ! EMO, EFA
0.051669 185.992                         ! EMO, EFA
0.051681 185.405                         ! EMO, EFA
0.051683 184.828                         ! EMO, EFA
0.051696 184.207                         ! EMO, EFA
0.051735 183.620                         ! EMO, EFA
0.051779 183.034                         ! EMO, EFA
0.051849 182.447                         ! EMO, EFA
0.051930 181.861                         ! EMO, EFA
0.052013 181.277                         ! EMO, EFA
0.052095 180.693                         ! EMO, EFA
0.052182 180.112                         ! EMO, EFA
0.052256 179.611                         ! EMO, EFA
0.052334 179.111                         ! EMO, EFA
0.052427 178.626                         ! EMO, EFA
0.052541 178.164                         ! EMO, EFA
0.052658 177.703                         ! EMO, EFA
0.052772 177.212                         ! EMO, EFA
0.052887 176.715                         ! EMO, EFA
0.053004 176.233                         ! EMO, EFA
0.053105 175.856                         ! EMO, EFA
0.053207 175.481                         ! EMO, EFA
0.053319 175.106                         ! EMO, EFA
0.053451 174.731                         ! EMO, EFA
0.053584 174.358                         ! EMO, EFA
0.053708 173.987                         ! EMO, EFA
0.053811 173.615                         ! EMO, EFA
0.053916 173.244                         ! EMO, EFA
0.054057 172.863                         ! EMO, EFA
0.054235 172.500                         ! EMO, EFA
0.054414 172.139                         ! EMO, EFA
0.054570 171.801                         ! EMO, EFA
0.054714 171.475                         ! EMO, EFA
0.054860 171.151                         ! EMO, EFA
0.055006 170.824                         ! EMO, EFA
0.055154 170.498                         ! EMO, EFA
0.055330 170.141                         ! EMO, EFA
0.055532 169.811                         ! EMO, EFA
0.055737 169.483                         ! EMO, EFA
0.055937 169.158                         ! EMO, EFA
0.056138 168.836                         ! EMO, EFA
0.056328 168.525                         ! EMO, EFA
0.056493 168.236                         ! EMO, EFA
0.056660 167.949                         ! EMO, EFA
0.056833 167.697                         ! EMO, EFA
0.057012 167.446                         ! EMO, EFA
0.057191 167.199                         ! EMO, EFA
0.057395 166.949                         ! EMO, EFA
0.057588 166.716                         ! EMO, EFA
0.057765 166.498                         ! EMO, EFA
0.057964 166.249                         ! EMO, EFA
0.058175 166.009                         ! EMO, EFA
0.058353 165.828                         ! EMO, EFA
0.058532 165.647                         ! EMO, EFA
0.058683 165.496                         ! EMO, EFA
0.058828 165.351                         ! EMO, EFA
0.058971 165.208                         ! EMO, EFA
0.059079 165.097                         ! EMO, EFA
0.059188 164.986                         ! EMO, EFA
0.059315 164.869                         ! EMO, EFA
0.059466 164.756                         ! EMO, EFA
0.059618 164.644                         ! EMO, EFA
0.059742 164.584                         ! EMO, EFA
0.059858 164.543                         ! EMO, EFA
0.059978 164.497                         ! EMO, EFA
0.060132 164.419                         ! EMO, EFA
0.060286 164.343                         ! EMO, EFA
0.060423 164.263                         ! EMO, EFA
0.060541 164.184                         ! EMO, EFA
0.060660 164.105                         ! EMO, EFA
0.060770 164.032                         ! EMO, EFA
0.060830 163.992                         ! EMO, EFA
0.060901 163.945                         ! EMO, EFA
0.061018 163.669                         ! EMO, EFA
0.061184 163.176                         ! EMO, EFA
0.061314 162.796                         ! EMO, EFA
0.061442 162.437                         ! EMO, EFA
0.061016 161.632                         ! EMO, EFA
0.055704 156.659                         ! EMO, EFA
0.051631 151.728                         ! EMO, EFA
0.048213 146.383                         ! EMO, EFA
0.045183 140.060                         ! EMO, EFA
0.043964 134.999                         ! EMO, EFA
0.043772 132.370                         ! EMO, EFA
0.043665 129.296                         ! EMO, EFA
0.043681 126.313                         ! EMO, EFA
0.043829 123.149                         ! EMO, EFA
0.043765 119.275                         ! EMO, EFA
0.043582 114.545                         ! EMO, EFA
0.043614 111.717                         ! EMO, EFA
0.043753 108.901                         ! EMO, EFA
0.043996 106.108                         ! EMO, EFA
0.044343 103.353                         ! EMO, EFA
0.044600 100.004                         ! EMO, EFA
0.044947 96.450                          ! EMO, EFA
0.045464 92.963                          ! EMO, EFA
0.046145 89.567                          ! EMO, EFA
0.046934 86.455                          ! EMO, EFA
0.047830 83.532                          ! EMO, EFA
0.048790 80.869                          ! EMO, EFA
0.049147 79.971                          ! EMO, EFA
0.049146 79.971                          ! EMO, EFA
0.049146 79.971                          ! EMO, EFA
0.049146 79.971                          ! EMO, EFA
0.049146 79.971                          ! EMO, EFA
0.049146 79.971                          ! EMO, EFA
0.049146 79.971                          ! EMO, EFA
K2                                       ! EALPHA - FORCING CONSTITUENT NAME AGAIN
0.045315 236.154                         ! EMO, EFA
0.045315 236.154                         ! EMO, EFA
0.045315 236.154                         ! EMO, EFA
0.045315 236.154                         ! EMO, EFA
0.045315 236.154                         ! EMO, EFA
0.045315 236.154                         ! EMO, EFA
0.045315 236.154                         ! EMO, EFA
0.045315 236.154                         ! EMO, EFA
0.045315 236.154                         ! EMO, EFA
0.045315 236.154                         ! EMO, EFA
0.045315 236.154                         ! EMO, EFA
0.045315 236.154                         ! EMO, EFA
0.045315 236.154                         ! EMO, EFA
0.045315 236.154                         ! EMO, EFA
0.045315 236.154                         ! EMO, EFA
0.045315 236.154                         ! EMO, EFA
0.045315 236.154                         ! EMO, EFA
0.045065 236.110                         ! EMO, EFA
0.044634 236.033                         ! EMO, EFA
0.044202 235.954                         ! EMO, EFA
0.043771 235.873                         ! EMO, EFA
0.043340 235.792                         ! EMO, EFA
0.042909 235.708                         ! EMO, EFA
0.042478 235.623                         ! EMO, EFA
0.042047 235.536                         ! EMO, EFA
0.041675 235.459                         ! EMO, EFA
0.041303 235.381                         ! EMO, EFA
0.040932 235.302                         ! EMO, EFA
0.040560 235.221                         ! EMO, EFA
0.040138 235.128                         ! EMO, EFA
0.039716 235.032                         ! EMO, EFA
0.039294 234.934                         ! EMO, EFA
0.038873 234.835                         ! EMO, EFA
0.038490 234.748                         ! EMO, EFA
0.038103 234.664                         ! EMO, EFA
0.037717 234.578                         ! EMO, EFA
0.037330 234.490                         ! EMO, EFA
0.036941 234.400                         ! EMO, EFA
0.036552 234.308                         ! EMO, EFA
0.036036 234.183                         ! EMO, EFA
0.035520 234.054                         ! EMO, EFA
0.035032 233.929                         ! EMO, EFA
0.034555 233.803                         ! EMO, EFA
0.034143 233.691                         ! EMO, EFA
0.033650 233.554                         ! EMO, EFA
0.033186 233.420                         ! EMO, EFA
0.032428 233.195                         ! EMO, EFA
0.031873 233.028                         ! EMO, EFA
0.031554 232.945                         ! EMO, EFA
0.031244 232.863                         ! EMO, EFA
0.030935 232.780                         ! EMO, EFA
0.030611 232.690                         ! EMO, EFA
0.030287 232.599                         ! EMO, EFA
0.029909 232.490                         ! EMO, EFA
0.029531 232.378                         ! EMO, EFA
0.029074 232.239                         ! EMO, EFA
0.028618 232.111                         ! EMO, EFA
0.028140 232.046                         ! EMO, EFA
0.027662 231.978                         ! EMO, EFA
0.026923 231.869                         ! EMO, EFA
0.026184 231.753                         ! EMO, EFA
0.025776 231.687                         ! EMO, EFA
0.025386 231.639                         ! EMO, EFA
0.024863 231.656                         ! EMO, EFA
0.024341 231.673                         ! EMO, EFA
0.023953 231.687                         ! EMO, EFA
0.023566 231.701                         ! EMO, EFA
0.023042 231.720                         ! EMO, EFA
0.022552 231.783                         ! EMO, EFA
0.022042 231.893                         ! EMO, EFA
0.021531 232.008                         ! EMO, EFA
0.021062 232.119                         ! EMO, EFA
0.020593 232.235                         ! EMO, EFA
0.020270 232.355                         ! EMO, EFA
0.019987 232.488                         ! EMO, EFA
0.019704 232.624                         ! EMO, EFA
0.019421 232.765                         ! EMO, EFA
0.019138 232.909                         ! EMO, EFA
0.018856 233.058                         ! EMO, EFA
0.018583 233.202                         ! EMO, EFA
0.018313 233.348                         ! EMO, EFA
0.018012 233.515                         ! EMO, EFA
0.017712 233.688                         ! EMO, EFA
0.017395 233.877                         ! EMO, EFA
0.017095 234.053                         ! EMO, EFA
0.016812 234.210                         ! EMO, EFA
0.016530 234.372                         ! EMO, EFA
0.016185 234.577                         ! EMO, EFA
0.015840 234.792                         ! EMO, EFA
0.015546 234.936                         ! EMO, EFA
0.015255 235.080                         ! EMO, EFA
0.015051 235.185                         ! EMO, EFA
0.014848 235.293                         ! EMO, EFA
0.014652 235.398                         ! EMO, EFA
0.014466 235.565                         ! EMO, EFA
0.014280 235.754                         ! EMO, EFA
0.014110 235.930                         ! EMO, EFA
0.013953 236.097                         ! EMO, EFA
0.013791 236.273                         ! EMO, EFA
0.013578 236.488                         ! EMO, EFA
0.013329 236.737                         ! EMO, EFA
0.013095 236.980                         ! EMO, EFA
0.012894 237.196                         ! EMO, EFA
0.012701 237.410                         ! EMO, EFA
0.012456 237.685                         ! EMO, EFA
0.012255 237.919                         ! EMO, EFA
0.012050 238.164                         ! EMO, EFA
0.011849 238.414                         ! EMO, EFA
0.011638 238.686                         ! EMO, EFA
0.011412 238.976                         ! EMO, EFA
0.011033 239.480                         ! EMO, EFA
0.010638 240.046                         ! EMO, EFA
0.010257 240.647                         ! EMO, EFA
0.009868 241.345                         ! EMO, EFA
0.009481 242.101                         ! EMO, EFA
0.009091 242.928                         ! EMO, EFA
0.008679 243.879                         ! EMO, EFA
0.008270 244.925                         ! EMO, EFA
0.007864 246.079                         ! EMO, EFA
0.007478 247.402                         ! EMO, EFA
0.007097 248.869                         ! EMO, EFA
0.006686 250.666                         ! EMO, EFA
0.006382 252.384                         ! EMO, EFA
0.006058 254.487                         ! EMO, EFA
0.005824 256.194                         ! EMO, EFA
0.005595 258.035                         ! EMO, EFA
0.005373 259.995                         ! EMO, EFA
0.005158 262.122                         ! EMO, EFA
0.004827 265.946                         ! EMO, EFA
0.004567 269.631                         ! EMO, EFA
0.004346 273.435                         ! EMO, EFA
0.004111 278.444                         ! EMO, EFA
0.003909 284.305                         ! EMO, EFA
0.003775 289.689                         ! EMO, EFA
0.003661 296.678                         ! EMO, EFA
0.003619 303.657                         ! EMO, EFA
0.003634 310.900                         ! EMO, EFA
0.003696 317.437                         ! EMO, EFA
0.003812 324.242                         ! EMO, EFA
0.003999 331.179                         ! EMO, EFA
0.004193 336.385                         ! EMO, EFA
0.004387 340.483                         ! EMO, EFA
0.004610 344.162                         ! EMO, EFA
0.004859 347.430                         ! EMO, EFA
0.005122 350.372                         ! EMO, EFA
0.005375 352.944                         ! EMO, EFA
0.005630 355.259                         ! EMO, EFA
0.005894 357.370                         ! EMO, EFA
0.006179 359.158                         ! EMO, EFA
0.006442 0.637                           ! EMO, EFA
0.006707 1.998                           ! EMO, EFA
0.006934 3.205                           ! EMO, EFA
0.007164 4.335                           ! EMO, EFA
0.007397 5.395                           ! EMO, EFA
0.007657 6.298                           ! EMO, EFA
0.007920 7.142                           ! EMO, EFA
0.008184 7.931                           ! EMO, EFA
0.008462 8.835                           ! EMO, EFA
0.008739 9.682                           ! EMO, EFA
0.009033 10.466                          ! EMO, EFA
0.009346 11.185                          ! EMO, EFA
0.009661 11.856                          ! EMO, EFA
0.009944 12.475                          ! EMO, EFA
0.010224 13.058                          ! EMO, EFA
0.010504 13.608                          ! EMO, EFA