 ASGS %StormName%
 %EnsembleID%
1 20.0 1 20 100.0      ! NFOVER,warnelev,iwarndump,warnelevdumplimit,errorelev
 0                     ! NABOUT - ABREVIATED OUTPUT OPTION PARAMETER
%NSCREEN%   ! output frequency (in time steps) to STDOUT or adcirc.log
%IHOT%                 ! IHOT - HOT START PARAMETER
 2                     ! ICS - COORDINATE SYSTEM SELECTION PARAMETER
 111112                ! IM - MODEL SELECTION PARAMETER 
 1                     ! NOLIBF - BOTTOM FRICTION TERM SELECTION PARAMETER
 2                     ! NOLIFA - FINITE AMPLITUDE TERM SELECTION PARAMETER
 0                     ! NOLICA - SPATIAL DERIVATIVE CONVECTIVE SELECTION PARAMETER
 0                     ! NOLICAT - TIME DERIVATIVE CONVECTIVE TERM SELECTION PARAMETER
 7                     ! NWP - VARIABLE BOTTOM FRICTION AND LATERAL VISCOSITY OPTION PARAMETER
average_horizontal_eddy_viscosity_in_sea_water_wrt_depth
sea_surface_height_above_geoid
surface_submergence_state
surface_canopy_coefficient
primitive_weighting_in_continuity_equation
surface_directional_effective_roughness_length
mannings_n_at_sea_floor
 1                     ! NCOR - VARIABLE CORIOLIS IN SPACE
 1                     ! NTIP - TIDAL POTENTIAL
%NWS%                  ! NWS - WIND STRESS AND BAROMETRIC PRESSURE
 2                     ! NRAMP - RAMP FUNCTION
 9.81                  ! G - ACCELERATION DUE TO GRAVITY - DETERMINES UNITS
 -3.0                  ! TAU0 - WEIGHTING FACTOR IN GWCE
%DT%                   ! DT - TIME STEP (IN SECONDS)
 0.00                  ! STATIM - STARTING TIME (IN DAYS)
 0.00                  ! REFTIM - REFERENCE TIME (IN DAYS)
%WTIMINC%              ! WTIMINC, RSTIMINC (IN SECONDS) 
%RNDAY%                ! RNDAY - TOTAL LENGTH OF SIMULATION (IN DAYS)
 0.5 1.0 6.0           ! DRAMP - DURATION OF RAMP FUNCTION (IN DAYS)
 0.0 1.0 0.0           ! TIME WEIGHTING FACTORS FOR THE GWCE EQUATION
 0.10 0 0 0.01         ! H0, NODEDRYMIN, NODEWETMIN, VELMIN
 265.5 29.0            ! SLAM0,SFEA0 - CENTER OF CPP PROJECTION
 0.0030 2.0 10 1.33333 ! FFACTOR,HBREAK,FTHETA,FGAMMA
 50.0                  ! ESL - LATERAL EDDY VISCOSITY COEFFICIENT
 0.0                   ! CORI - CORIOLIS PARAMETER - IGNORED IF NCOR = 1
 7                     ! NTIF - TOTAL NUMBER OF TIDAL POTENTIAL CONSTITUENTS BE
M2
 0.242334  1.405174E-004 0.693000  %M2NF%  %M2EQARG%
S2       
 0.112841  1.454426E-004 0.693000  %S2NF%  %S2EQARG%
N2
 0.046398  1.378783E-004 0.693000  %N2NF%  %N2EQARG%
K2
 0.030704  1.458408E-004 0.693000  %K2NF%  %K2EQARG%
K1
 0.141565  7.292040E-005 0.736000  %K1NF%  %K1EQARG%
O1
 0.100514  6.759704E-005 0.695000  %O1NF%  %O1EQARG%
Q1
 0.019256 6.495787E-005 0.695000   %Q1NF%  %Q1EQARG%
7                      ! NBFR - TOTAL NUMBER OF FORCING FREQUENCIES ON OPEN BOU 
M2                                       ! ALPHANUMERIC DESCRIPTION
   1.405174E-004  %M2NF%  %M2EQARG%
S2                                       ! ALPHANUMERIC DESCRIPTION
   1.454426E-004  %S2NF%  %S2EQARG%
N2                                       ! ALPHANUMERIC DESCRIPTION
   1.378783E-004  %N2NF%  %N2EQARG%
K2                                       ! ALPHANUMERIC DESCRIPTION
   1.458408E-004  %K2NF%  %K2EQARG%
K1                                       ! ALPHANUMERIC DESCRIPTION
   7.292040E-005  %K1NF%  %K1EQARG%
O1                                       ! ALPHANUMERIC DESCRIPTION
   6.759704E-005  %O1NF%  %O1EQARG%
Q1                                       ! ALPHANUMERIC DESCRIPTION
   6.495787E-005  %Q1NF%  %Q1EQARG%
M2               ! jgf: interpolated 2014 04 21 from ec2001 v2e tidal database
  0.53959E+00   223.400
  0.53639E+00   223.290
  0.53309E+00   223.170
  0.52989E+00   223.060
  0.52669E+00   222.950
  0.52339E+00   222.830
  0.52019E+00   222.720
  0.51689E+00   222.610
  0.51369E+00   222.490
  0.51049E+00   222.380
  0.50729E+00   222.270
  0.50409E+00   222.160
  0.50099E+00   222.050
  0.49739E+00   221.920
  0.49379E+00   221.800
  0.49029E+00   221.680
  0.48669E+00   221.550
  0.48269E+00   221.410
  0.47849E+00   221.290
  0.47439E+00   221.170
  0.47019E+00   221.050
  0.46609E+00   220.930
  0.46189E+00   220.800
  0.45779E+00   220.680
  0.45359E+00   220.550
  0.45009E+00   220.430
  0.44649E+00   220.320
  0.44289E+00   220.200
  0.43929E+00   220.080
  0.43529E+00   219.940
  0.43119E+00   219.800
  0.42719E+00   219.650
  0.42309E+00   219.510
  0.41939E+00   219.380
  0.41569E+00   219.250
  0.41189E+00   219.130
  0.40819E+00   219.000
  0.40439E+00   218.870
  0.40069E+00   218.730
  0.39569E+00   218.550
  0.39069E+00   218.370
  0.38589E+00   218.180
  0.38129E+00   218.000
  0.37729E+00   217.840
  0.37259E+00   217.650
  0.36809E+00   217.460
  0.36079E+00   217.140
  0.35539E+00   216.900
  0.35209E+00   216.790
  0.34879E+00   216.690
  0.34559E+00   216.580
  0.34229E+00   216.460
  0.33889E+00   216.340
  0.33499E+00   216.200
  0.33109E+00   216.050
  0.32639E+00   215.870
  0.32159E+00   215.700
  0.31659E+00   215.620
  0.31149E+00   215.530
  0.30369E+00   215.380
  0.29599E+00   215.230
  0.29159E+00   215.150
  0.28749E+00   215.090
  0.28169E+00   215.120
  0.27589E+00   215.150
  0.27159E+00   215.170
  0.26719E+00   215.190
  0.26139E+00   215.230
  0.25609E+00   215.310
  0.25059E+00   215.440
  0.24509E+00   215.570
  0.24009E+00   215.710
  0.23499E+00   215.840
  0.23139E+00   215.990
  0.22809E+00   216.150
  0.22479E+00   216.320
  0.22149E+00   216.490
  0.21819E+00   216.670
  0.21489E+00   216.860
  0.21179E+00   217.030
  0.20869E+00   217.210
  0.20529E+00   217.420
  0.20179E+00   217.630
  0.19829E+00   217.860
  0.19479E+00   218.100
  0.19139E+00   218.350
  0.18800E+00   218.610
  0.18380E+00   218.940
  0.17969E+00   219.290
  0.17590E+00   219.670
  0.17210E+00   220.070
  0.16940E+00   220.360
  0.16670E+00   220.660
  0.16420E+00   220.950
  0.16170E+00   221.330
  0.15910E+00   221.740
  0.15680E+00   222.120
  0.15460E+00   222.490
  0.15240E+00   222.880
  0.14970E+00   223.350
  0.14660E+00   223.890
  0.14370E+00   224.420
  0.14120E+00   224.890
  0.13890E+00   225.360
  0.13580E+00   226.010
  0.13330E+00   226.580
  0.13070E+00   227.170
  0.12820E+00   227.780
  0.12560E+00   228.450
  0.12280E+00   229.180
  0.11820E+00   230.470
  0.11330E+00   231.930
  0.10870E+00   233.480
  0.10390E+00   235.270
  0.99197E-01   237.230
  0.94598E-01   239.390
  0.90398E-01   241.790
  0.86398E-01   244.420
  0.82498E-01   247.300
  0.78998E-01   250.500
  0.75798E-01   254.000
  0.72598E-01   258.170
  0.70398E-01   261.840
  0.68398E-01   266.140
  0.67198E-01   269.470
  0.66298E-01   272.880
  0.65698E-01   276.220
  0.65398E-01   279.610
  0.65298E-01   285.110
  0.65798E-01   289.760
  0.66598E-01   294.000
  0.68098E-01   298.850
  0.70098E-01   303.690
  0.72298E-01   307.550
  0.75298E-01   311.910
  0.78598E-01   315.750
  0.82398E-01   319.380
  0.86098E-01   322.410
  0.90498E-01   325.390
  0.95598E-01   328.350
  0.10010E+00   330.480
  0.10410E+00   332.170
  0.10820E+00   333.730
  0.11220E+00   335.150
  0.11640E+00   336.470
  0.12050E+00   337.650
  0.12460E+00   338.720
  0.12880E+00   339.730
  0.13280E+00   340.630
  0.13650E+00   341.400
  0.14020E+00   342.130
  0.14380E+00   342.740
  0.14740E+00   343.320
  0.15100E+00   343.870
  0.15450E+00   344.340
  0.15800E+00   344.800
  0.16160E+00   345.230
  0.16580E+00   345.760
  0.17000E+00   346.260
  0.17420E+00   346.720
  0.17830E+00   347.160
  0.18249E+00   347.570
  0.18659E+00   347.940
  0.19070E+00   348.290
  0.19479E+00   348.610
  0.19889E+00   348.890
  0.20300E+00   349.170
  0.20709E+00   349.450
  0.21109E+00   349.730
  0.21499E+00   349.980
  0.21890E+00   350.180
  0.22279E+00   350.370
  0.22659E+00   350.580
  0.23029E+00   350.770
  0.23389E+00   350.920
  0.23739E+00   351.040
  0.24099E+00   351.150
  0.24449E+00   351.270
  0.24799E+00   351.390
  0.25139E+00   351.500
  0.25479E+00   351.620
  0.25809E+00   351.730
  0.26139E+00   351.840
  0.26469E+00   351.960
  0.26789E+00   352.060
  0.27109E+00   352.130
  0.27419E+00   352.210
  0.27729E+00   352.260
  0.28049E+00   352.300
  0.28379E+00   352.350
  0.28709E+00   352.430
  0.29039E+00   352.510
  0.29359E+00   352.560
  0.29669E+00   352.600
  0.29989E+00   352.620
  0.30299E+00   352.620
  0.30609E+00   352.620
  0.30889E+00   352.660
  0.31159E+00   352.700
  0.31439E+00   352.720
  0.31699E+00   352.720
  0.31969E+00   352.720
  0.32229E+00   352.720
  0.32489E+00   352.720
  0.32749E+00   352.710
  0.32969E+00   352.670
  0.33189E+00   352.640
  0.33409E+00   352.610
  0.33629E+00   352.570
  0.33849E+00   352.540
  0.34059E+00   352.500
  0.34269E+00   352.470
  0.34469E+00   352.430
  0.34689E+00   352.380
  0.34889E+00   352.310
  0.35099E+00   352.240
  0.35299E+00   352.190
  0.35499E+00   352.150
  0.35689E+00   352.110
  0.35879E+00   352.010
  0.36059E+00   351.900
  0.36269E+00   351.780
  0.36459E+00   351.650
  0.36659E+00   351.530
  0.36859E+00   351.410
  0.37059E+00   351.290
  0.37249E+00   351.170
  0.37439E+00   351.050
  0.37629E+00   350.930
  0.37799E+00   350.820
  0.37959E+00   350.710
  0.38119E+00   350.590
  0.38309E+00   350.390
  0.38479E+00   350.200
  0.38659E+00   350.020
  0.38879E+00   349.820
  0.39089E+00   349.610
  0.39249E+00   349.430
  0.39419E+00   349.250
  0.39579E+00   349.040
  0.39759E+00   348.820
  0.39929E+00   348.610
  0.40099E+00   348.430
  0.40269E+00   348.250
  0.40449E+00   348.030
  0.40639E+00   347.760
  0.40819E+00   347.490
  0.40999E+00   347.200
  0.41179E+00   346.890
  0.41369E+00   346.590
  0.41539E+00   346.280
  0.41709E+00   345.970
  0.41889E+00   345.630
  0.42059E+00   345.270
  0.42229E+00   344.910
  0.42389E+00   344.520
  0.42469E+00   344.300
  0.42569E+00   344.050
  0.42689E+00   343.780
  0.42829E+00   343.510
  0.42929E+00   343.310
  0.43029E+00   343.110
  0.43249E+00   343.060
  0.44409E+00   344.430
  0.45409E+00   345.520
  0.46359E+00   346.500
  0.47349E+00   347.480
  0.48089E+00   347.710
  0.48489E+00   347.600
  0.48939E+00   347.490
  0.49379E+00   347.380
  0.49849E+00   347.270
  0.50169E+00   347.100
  0.50359E+00   346.860
  0.50459E+00   346.720
  0.50569E+00   346.590
  0.50679E+00   346.450
  0.50789E+00   346.310
  0.50759E+00   346.170
  0.50669E+00   346.040
  0.50579E+00   345.900
  0.50489E+00   345.760
  0.50399E+00   345.620
  0.50319E+00   345.490
  0.50239E+00   345.370
  0.50179E+00   345.280
  0.50129E+00   345.200
  0.50069E+00   345.100
  0.50009E+00   345.020
  0.49969E+00   344.950
  0.49929E+00   344.900
  0.49879E+00   344.810
   S2      
  0.18749E+00   275.633
  0.18649E+00   275.253
  0.18539E+00   274.862
  0.18439E+00   274.483
  0.18329E+00   274.103
  0.18229E+00   273.723
  0.18119E+00   273.342
  0.18019E+00   272.962
  0.17909E+00   272.573
  0.17809E+00   272.203
  0.17699E+00   271.823
  0.17599E+00   271.453
  0.17489E+00   271.073
  0.17379E+00   270.652
  0.17259E+00   270.232
  0.17149E+00   269.812
  0.17029E+00   269.392
  0.16899E+00   268.922
  0.16779E+00   268.632
  0.16649E+00   268.332
  0.16529E+00   268.022
  0.16399E+00   267.712
  0.16279E+00   267.402
  0.16159E+00   267.082
  0.16029E+00   266.762
  0.15929E+00   266.472
  0.15819E+00   266.182
  0.15719E+00   265.892
  0.15609E+00   265.602
  0.15499E+00   265.262
  0.15379E+00   264.912
  0.15259E+00   264.562
  0.15149E+00   264.212
  0.15019E+00   263.782
  0.14879E+00   263.272
  0.14739E+00   262.742
  0.14589E+00   262.212
  0.14449E+00   261.662
  0.14309E+00   261.092
  0.14129E+00   260.332
  0.13949E+00   259.552
  0.13779E+00   258.792
  0.13619E+00   258.032
  0.13479E+00   257.362
  0.13319E+00   256.542
  0.13169E+00   255.752
  0.12929E+00   254.422
  0.12749E+00   253.452
  0.12630E+00   252.992
  0.12519E+00   252.542
  0.12410E+00   252.072
  0.12290E+00   251.582
  0.12179E+00   251.082
  0.12039E+00   250.482
  0.11909E+00   249.872
  0.11750E+00   249.112
  0.11590E+00   248.432
  0.11420E+00   248.122
  0.11240E+00   247.812
  0.10970E+00   247.302
  0.10700E+00   246.772
  0.10550E+00   246.462
  0.10400E+00   246.232
  0.10210E+00   246.242
  0.10020E+00   246.252
  0.98696E-01   246.262
  0.97296E-01   246.272
  0.95397E-01   246.282
  0.93597E-01   246.382
  0.91897E-01   246.572
  0.90197E-01   246.772
  0.88597E-01   246.962
  0.86997E-01   247.152
  0.85897E-01   247.322
  0.84897E-01   247.482
  0.83797E-01   247.642
  0.82797E-01   247.812
  0.81797E-01   247.982
  0.80697E-01   248.152
  0.79797E-01   248.322
  0.78797E-01   248.482
  0.77697E-01   248.662
  0.76597E-01   248.852
  0.75497E-01   249.052
  0.74397E-01   249.232
  0.73297E-01   249.372
  0.72197E-01   249.512
  0.70897E-01   249.692
  0.69597E-01   249.882
  0.68298E-01   249.942
  0.67098E-01   249.992
  0.66198E-01   250.033
  0.65298E-01   250.073
  0.64498E-01   250.113
  0.63698E-01   250.233
  0.62898E-01   250.372
  0.62098E-01   250.503
  0.61498E-01   250.623
  0.60798E-01   250.763
  0.59898E-01   250.963
  0.58898E-01   251.213
  0.57998E-01   251.453
  0.57298E-01   251.673
  0.56498E-01   251.883
  0.55598E-01   252.223
  0.54798E-01   252.533
  0.53998E-01   252.853
  0.53198E-01   253.173
  0.52398E-01   253.523
  0.51598E-01   253.913
  0.50099E-01   254.603
  0.48599E-01   255.363
  0.47099E-01   256.163
  0.45499E-01   257.093
  0.43999E-01   258.083
  0.42499E-01   259.163
  0.40999E-01   260.353
  0.39599E-01   261.623
  0.38199E-01   262.993
  0.36899E-01   264.553
  0.35599E-01   266.223
  0.34299E-01   268.203
  0.33200E-01   269.964
  0.32200E-01   272.034
  0.31400E-01   273.664
  0.30600E-01   275.364
  0.30000E-01   277.114
  0.29400E-01   278.934
  0.28400E-01   282.034
  0.27700E-01   284.834
  0.27100E-01   287.564
  0.26500E-01   290.953
  0.25900E-01   294.683
  0.25500E-01   297.973
  0.25100E-01   302.073
  0.25000E-01   306.113
  0.24900E-01   310.313
  0.25001E-01   314.182
  0.25201E-01   318.372
  0.25501E-01   322.882
  0.26001E-01   326.472
  0.26501E-01   329.472
  0.27001E-01   332.301
  0.27601E-01   334.981
  0.28301E-01   337.541
  0.29001E-01   339.901
  0.29701E-01   342.101
  0.30500E-01   344.201
  0.31401E-01   346.091
  0.32100E-01   347.711
  0.32900E-01   349.261
  0.33600E-01   350.651
  0.34400E-01   351.990
  0.35200E-01   353.260
  0.36000E-01   354.390
  0.36800E-01   355.460
  0.37600E-01   356.490
  0.38600E-01   357.680
  0.39600E-01   358.810
  0.40600E-01   359.870
  0.41700E-01     0.870
  0.42700E-01     1.820
  0.43700E-01     2.720
  0.44700E-01     3.580
  0.45800E-01     4.390
  0.46800E-01     5.170
  0.47900E-01     5.910
  0.48900E-01     6.590
  0.49900E-01     7.230
  0.51000E-01     7.810
  0.52000E-01     8.350
  0.53000E-01     8.860
  0.53999E-01     9.360
  0.54899E-01     9.820
  0.55899E-01    10.250
  0.56799E-01    10.650
  0.57799E-01    11.030
  0.58699E-01    11.390
  0.59599E-01    11.740
  0.60499E-01    12.080
  0.61399E-01    12.400
  0.62299E-01    12.700
  0.63199E-01    13.010
  0.64099E-01    13.310
  0.64899E-01    13.600
  0.65799E-01    13.870
  0.66599E-01    14.140
  0.67499E-01    14.380
  0.68299E-01    14.610
  0.69199E-01    14.850
  0.70099E-01    15.060
  0.70999E-01    15.270
  0.71799E-01    15.480
  0.72699E-01    15.680
  0.73499E-01    15.890
  0.74299E-01    16.100
  0.75199E-01    16.300
  0.75898E-01    16.420
  0.76698E-01    16.540
  0.77398E-01    16.670
  0.78098E-01    16.820
  0.78798E-01    16.970
  0.79498E-01    17.090
  0.80198E-01    17.210
  0.80898E-01    17.310
  0.81498E-01    17.380
  0.82098E-01    17.450
  0.82698E-01    17.520
  0.83298E-01    17.590
  0.83798E-01    17.650
  0.84398E-01    17.720
  0.84898E-01    17.790
  0.85498E-01    17.850
  0.85998E-01    17.890
  0.86598E-01    17.890
  0.87098E-01    17.890
  0.87598E-01    17.910
  0.88098E-01    17.950
  0.88598E-01    17.980
  0.89098E-01    17.950
  0.89498E-01    17.920
  0.89998E-01    17.890
  0.90498E-01    17.890
  0.90998E-01    17.880
  0.91498E-01    17.850
  0.91998E-01    17.810
  0.92398E-01    17.770
  0.92898E-01    17.730
  0.93298E-01    17.690
  0.93698E-01    17.620
  0.93998E-01    17.550
  0.94398E-01    17.480
  0.94798E-01    17.400
  0.95197E-01    17.320
  0.95597E-01    17.240
  0.96097E-01    17.140
  0.96597E-01    17.030
  0.96897E-01    16.920
  0.97297E-01    16.810
  0.97597E-01    16.700
  0.97997E-01    16.600
  0.98297E-01    16.490
  0.98697E-01    16.350
  0.98997E-01    16.210
  0.99397E-01    16.050
  0.99797E-01    15.900
  0.10030E+00    15.750
  0.10070E+00    15.590
  0.10100E+00    15.430
  0.10140E+00    15.270
  0.10180E+00    15.040
  0.10220E+00    14.810
  0.10260E+00    14.590
  0.10290E+00    14.390
  0.10330E+00    14.190
  0.10370E+00    13.910
  0.10390E+00    13.770
  0.10420E+00    13.590
  0.10450E+00    13.440
  0.10500E+00    13.310
  0.10530E+00    13.210
  0.10560E+00    13.120
  0.10640E+00    13.230
  0.11100E+00    15.110
  0.11500E+00    16.570
  0.11870E+00    17.850
  0.12270E+00    19.100
  0.12560E+00    19.550
  0.12700E+00    19.580
  0.12860E+00    19.620
  0.13020E+00    19.660
  0.13190E+00    19.700
  0.13319E+00    19.630
  0.13409E+00    19.440
  0.13469E+00    19.340
  0.13520E+00    19.230
  0.13579E+00    19.121
  0.13630E+00    19.021
  0.13649E+00    18.861
  0.13640E+00    18.670
  0.13630E+00    18.491
  0.13630E+00    18.310
  0.13620E+00    18.130
  0.13620E+00    17.960
  0.13610E+00    17.800
  0.13610E+00    17.681
  0.13600E+00    17.570
  0.13600E+00    17.450
  0.13590E+00    17.330
  0.13590E+00    17.251
  0.13590E+00    17.170
  0.13580E+00    17.060
   N2      
  0.11680E+00   197.456
  0.11610E+00   197.416
  0.11540E+00   197.376
  0.11470E+00   197.336
  0.11410E+00   197.296
  0.11340E+00   197.256
  0.11270E+00   197.216
  0.11200E+00   197.176
  0.11130E+00   197.126
  0.11070E+00   197.096
  0.11000E+00   197.056
  0.10930E+00   197.016
  0.10860E+00   196.976
  0.10790E+00   196.926
  0.10710E+00   196.886
  0.10640E+00   196.836
  0.10560E+00   196.796
  0.10480E+00   196.746
  0.10390E+00   196.696
  0.10300E+00   196.646
  0.10220E+00   196.606
  0.10130E+00   196.556
  0.10040E+00   196.506
  0.99600E-01   196.456
  0.98700E-01   196.406
  0.97900E-01   196.356
  0.97200E-01   196.316
  0.96400E-01   196.266
  0.95700E-01   196.216
  0.94800E-01   196.166
  0.94000E-01   196.106
  0.93100E-01   196.056
  0.92300E-01   195.996
  0.91500E-01   195.946
  0.90700E-01   195.906
  0.89900E-01   195.866
  0.89200E-01   195.826
  0.88400E-01   195.786
  0.87600E-01   195.746
  0.86500E-01   195.686
  0.85500E-01   195.626
  0.84500E-01   195.566
  0.83500E-01   195.516
  0.82600E-01   195.466
  0.81600E-01   195.396
  0.80700E-01   195.336
  0.79100E-01   195.236
  0.78000E-01   195.156
  0.77300E-01   195.106
  0.76600E-01   195.046
  0.75900E-01   194.996
  0.75200E-01   194.936
  0.74500E-01   194.866
  0.73600E-01   194.796
  0.72800E-01   194.726
  0.71800E-01   194.626
  0.70800E-01   194.536
  0.69700E-01   194.466
  0.68700E-01   194.386
  0.67100E-01   194.266
  0.65400E-01   194.146
  0.64500E-01   194.066
  0.63700E-01   194.016
  0.62400E-01   193.986
  0.61200E-01   193.966
  0.60300E-01   193.956
  0.59400E-01   193.936
  0.58100E-01   193.906
  0.57000E-01   193.926
  0.55800E-01   193.966
  0.54700E-01   194.016
  0.53600E-01   194.066
  0.52500E-01   194.116
  0.51800E-01   194.196
  0.51100E-01   194.296
  0.50300E-01   194.406
  0.49600E-01   194.506
  0.48900E-01   194.616
  0.48200E-01   194.726
  0.47500E-01   194.846
  0.46800E-01   194.956
  0.46100E-01   195.087
  0.45300E-01   195.227
  0.44600E-01   195.376
  0.43800E-01   195.547
  0.43000E-01   195.757
  0.42300E-01   195.977
  0.41400E-01   196.257
  0.40500E-01   196.546
  0.39600E-01   196.917
  0.38700E-01   197.307
  0.38100E-01   197.596
  0.37500E-01   197.887
  0.36900E-01   198.177
  0.36300E-01   198.557
  0.35700E-01   198.966
  0.35200E-01   199.357
  0.34700E-01   199.726
  0.34100E-01   200.116
  0.33500E-01   200.566
  0.32800E-01   201.066
  0.32100E-01   201.556
  0.31500E-01   201.986
  0.31000E-01   202.426
  0.30300E-01   202.996
  0.29700E-01   203.486
  0.29100E-01   204.016
  0.28500E-01   204.546
  0.27900E-01   205.136
  0.27200E-01   205.786
  0.26100E-01   206.956
  0.25000E-01   208.276
  0.23900E-01   209.696
  0.22800E-01   211.316
  0.21700E-01   213.116
  0.20600E-01   215.106
  0.19500E-01   217.296
  0.18500E-01   219.726
  0.17500E-01   222.436
  0.16700E-01   225.526
  0.15800E-01   228.946
  0.15000E-01   233.116
  0.14400E-01   236.856
  0.13800E-01   241.326
  0.13500E-01   244.866
  0.13200E-01   248.546
  0.13000E-01   252.226
  0.12800E-01   256.006
  0.12700E-01   262.266
  0.12700E-01   267.676
  0.12800E-01   272.666
  0.13100E-01   278.396
  0.13500E-01   284.086
  0.14000E-01   288.576
  0.14700E-01   293.616
  0.15400E-01   297.986
  0.16200E-01   302.046
  0.17100E-01   305.426
  0.18100E-01   308.706
  0.19300E-01   311.926
  0.20300E-01   314.236
  0.21300E-01   316.056
  0.22200E-01   317.696
  0.23200E-01   319.186
  0.24100E-01   320.566
  0.25100E-01   321.756
  0.26000E-01   322.836
  0.27000E-01   323.836
  0.27900E-01   324.706
  0.28700E-01   325.446
  0.29500E-01   326.146
  0.30400E-01   326.756
  0.31200E-01   327.326
  0.32100E-01   327.876
  0.32900E-01   328.346
  0.33600E-01   328.806
  0.34400E-01   329.236
  0.35400E-01   329.726
  0.36300E-01   330.186
  0.37300E-01   330.626
  0.38300E-01   331.056
  0.39300E-01   331.476
  0.40200E-01   331.806
  0.41100E-01   332.116
  0.42000E-01   332.426
  0.43000E-01   332.746
  0.44000E-01   333.056
  0.44900E-01   333.306
  0.45800E-01   333.546
  0.46700E-01   333.766
  0.47599E-01   333.966
  0.48499E-01   334.166
  0.49300E-01   334.286
  0.50200E-01   334.406
  0.50999E-01   334.536
  0.51799E-01   334.696
  0.52699E-01   334.846
  0.53500E-01   334.926
  0.54299E-01   335.006
  0.55099E-01   335.096
  0.55899E-01   335.216
  0.56599E-01   335.326
  0.57399E-01   335.406
  0.58099E-01   335.486
  0.58899E-01   335.556
  0.59599E-01   335.636
  0.60399E-01   335.706
  0.61099E-01   335.756
  0.61799E-01   335.796
  0.62599E-01   335.836
  0.63399E-01   335.876
  0.64099E-01   335.916
  0.64899E-01   335.916
  0.65599E-01   335.916
  0.66399E-01   335.936
  0.67099E-01   335.976
  0.67799E-01   336.016
  0.68399E-01   336.016
  0.69099E-01   336.016
  0.69699E-01   336.016
  0.70399E-01   336.016
  0.70999E-01   336.016
  0.71699E-01   335.976
  0.72299E-01   335.946
  0.72899E-01   335.906
  0.73499E-01   335.866
  0.73999E-01   335.836
  0.74499E-01   335.806
  0.74999E-01   335.766
  0.75499E-01   335.736
  0.76099E-01   335.686
  0.76599E-01   335.616
  0.77099E-01   335.556
  0.77599E-01   335.476
  0.78099E-01   335.406
  0.78599E-01   335.336
  0.79099E-01   335.256
  0.79599E-01   335.186
  0.79999E-01   335.106
  0.80499E-01   335.006
  0.80899E-01   334.896
  0.81399E-01   334.776
  0.81899E-01   334.646
  0.82399E-01   334.526
  0.82899E-01   334.376
  0.83299E-01   334.216
  0.83799E-01   334.066
  0.84299E-01   333.946
  0.84699E-01   333.816
  0.85099E-01   333.676
  0.85499E-01   333.536
  0.85899E-01   333.386
  0.86399E-01   333.186
  0.86799E-01   332.996
  0.87199E-01   332.796
  0.87699E-01   332.546
  0.88199E-01   332.286
  0.88599E-01   332.076
  0.88899E-01   331.856
  0.89299E-01   331.636
  0.89699E-01   331.426
  0.90099E-01   331.206
  0.90499E-01   330.986
  0.90899E-01   330.776
  0.91299E-01   330.526
  0.91799E-01   330.256
  0.92199E-01   329.986
  0.92599E-01   329.696
  0.92999E-01   329.386
  0.93299E-01   329.076
  0.93699E-01   328.726
  0.94099E-01   328.376
  0.94499E-01   328.016
  0.94899E-01   327.656
  0.95299E-01   327.306
  0.95599E-01   326.906
  0.95799E-01   326.686
  0.95999E-01   326.436
  0.96299E-01   326.156
  0.96599E-01   325.866
  0.96799E-01   325.636
  0.96999E-01   325.416
  0.97599E-01   325.286
  0.10060E+00   326.077
  0.10320E+00   326.707
  0.10560E+00   327.267
  0.10810E+00   327.817
  0.10990E+00   327.797
  0.11090E+00   327.597
  0.11200E+00   327.367
  0.11310E+00   327.147
  0.11420E+00   326.917
  0.11510E+00   326.617
  0.11570E+00   326.237
  0.11600E+00   326.017
  0.11640E+00   325.797
  0.11680E+00   325.567
  0.11710E+00   325.347
  0.11720E+00   325.117
  0.11720E+00   324.877
  0.11720E+00   324.637
  0.11720E+00   324.397
  0.11720E+00   324.177
  0.11720E+00   323.957
  0.11720E+00   323.747
  0.11720E+00   323.597
  0.11720E+00   323.447
  0.11720E+00   323.297
  0.11720E+00   323.137
  0.11720E+00   323.037
  0.11720E+00   322.937
  0.11720E+00   322.797
   K2      
  0.50992E-01   237.440
  0.50692E-01   237.360
  0.50292E-01   237.280
  0.49992E-01   237.200
  0.49692E-01   237.130
  0.49292E-01   237.050
  0.48992E-01   236.970
  0.48692E-01   236.900
  0.48292E-01   236.820
  0.47992E-01   236.740
  0.47692E-01   236.670
  0.47292E-01   236.590
  0.46992E-01   236.510
  0.46592E-01   236.430
  0.46292E-01   236.350
  0.45891E-01   236.260
  0.45491E-01   236.180
  0.45091E-01   236.080
  0.44591E-01   236.000
  0.44191E-01   235.920
  0.43791E-01   235.840
  0.43291E-01   235.760
  0.42891E-01   235.680
  0.42491E-01   235.590
  0.41991E-01   235.510
  0.41692E-01   235.430
  0.41292E-01   235.350
  0.40891E-01   235.270
  0.40592E-01   235.190
  0.40091E-01   235.100
  0.39692E-01   235.000
  0.39292E-01   234.900
  0.38892E-01   234.800
  0.38491E-01   234.720
  0.38091E-01   234.630
  0.37692E-01   234.550
  0.37292E-01   234.460
  0.36892E-01   234.370
  0.36592E-01   234.280
  0.35992E-01   234.150
  0.35492E-01   234.020
  0.34991E-01   233.900
  0.34591E-01   233.770
  0.34091E-01   233.660
  0.33691E-01   233.520
  0.33191E-01   233.390
  0.32391E-01   233.170
  0.31891E-01   233.000
  0.31591E-01   232.920
  0.31191E-01   232.830
  0.30891E-01   232.750
  0.30591E-01   232.660
  0.30291E-01   232.571
  0.29892E-01   232.460
  0.29492E-01   232.350
  0.29092E-01   232.211
  0.28592E-01   232.081
  0.28092E-01   232.011
  0.27692E-01   231.951
  0.26892E-01   231.841
  0.26192E-01   231.721
  0.25792E-01   231.651
  0.25392E-01   231.611
  0.24892E-01   231.621
  0.24293E-01   231.641
  0.23993E-01   231.651
  0.23593E-01   231.671
  0.22993E-01   231.690
  0.22493E-01   231.750
  0.21993E-01   231.860
  0.21493E-01   231.980
  0.21094E-01   232.090
  0.20594E-01   232.200
  0.20294E-01   232.320
  0.19994E-01   232.460
  0.19694E-01   232.590
  0.19394E-01   232.730
  0.19094E-01   232.880
  0.18894E-01   233.030
  0.18594E-01   233.170
  0.18294E-01   233.320
  0.17994E-01   233.480
  0.17694E-01   233.660
  0.17395E-01   233.849
  0.17095E-01   234.019
  0.16795E-01   234.179
  0.16495E-01   234.339
  0.16195E-01   234.549
  0.15795E-01   234.759
  0.15495E-01   234.899
  0.15295E-01   235.050
  0.14995E-01   235.149
  0.14795E-01   235.259
  0.14596E-01   235.369
  0.14496E-01   235.530
  0.14296E-01   235.720
  0.14096E-01   235.900
  0.13996E-01   236.070
  0.13796E-01   236.240
  0.13596E-01   236.460
  0.13296E-01   236.710
  0.13096E-01   236.950
  0.12896E-01   237.160
  0.12696E-01   237.380
  0.12496E-01   237.650
  0.12296E-01   237.890
  0.11996E-01   238.130
  0.11796E-01   238.380
  0.11597E-01   238.650
  0.11397E-01   238.939
  0.10997E-01   239.449
  0.10597E-01   240.009
  0.10297E-01   240.610
  0.98973E-02   241.309
  0.94975E-02   242.069
  0.90976E-02   242.889
  0.86978E-02   243.849
  0.82979E-02   244.889
  0.78981E-02   246.049
  0.74982E-02   247.368
  0.70984E-02   248.838
  0.66985E-02   250.627
  0.63986E-02   252.347
  0.60988E-02   254.456
  0.57988E-02   256.156
  0.55989E-02   258.005
  0.53990E-02   259.965
  0.51990E-02   262.094
  0.47991E-02   265.912
  0.45992E-02   269.601
  0.42992E-02   273.409
  0.40992E-02   278.418
  0.38992E-02   284.286
  0.37992E-02   289.664
  0.36991E-02   296.663
  0.35989E-02   303.641
  0.35988E-02   310.880
  0.36986E-02   317.421
  0.37984E-02   324.221
  0.39982E-02   331.162
  0.41980E-02   336.364
  0.43978E-02   340.465
  0.45976E-02   344.146
  0.48975E-02   347.407
  0.50973E-02   350.348
  0.53972E-02   352.919
  0.55970E-02   355.239
  0.58969E-02   357.350
  0.61967E-02   359.131
  0.63966E-02     0.611
  0.66965E-02     1.972
  0.68963E-02     3.182
  0.71962E-02     4.313
  0.73961E-02     5.373
  0.76960E-02     6.274
  0.78959E-02     7.114
  0.81958E-02     7.904
  0.84956E-02     8.805
  0.86955E-02     9.655
  0.89953E-02    10.435
  0.92952E-02    11.155
  0.96951E-02    11.826
  0.98949E-02    12.446
  0.10195E-01    13.036
  0.10495E-01    13.586
  0.10794E-01    14.116
  0.11094E-01    14.617
  0.11394E-01    15.077
  0.11594E-01    15.517
  0.11894E-01    15.897
  0.12194E-01    16.227
  0.12494E-01    16.537
  0.12794E-01    16.827
  0.13094E-01    17.097
  0.13293E-01    17.378
  0.13493E-01    17.647
  0.13793E-01    17.908
  0.13993E-01    18.118
  0.14293E-01    18.308
  0.14493E-01    18.508
  0.14693E-01    18.708
  0.14993E-01    18.888
  0.15193E-01    19.078
  0.15392E-01    19.268
  0.15692E-01    19.448
  0.15892E-01    19.598
  0.16092E-01    19.748
  0.16392E-01    19.878
  0.16592E-01    19.988
  0.16792E-01    20.118
  0.16992E-01    20.238
  0.17192E-01    20.368
  0.17491E-01    20.489
  0.17691E-01    20.609
  0.17991E-01    20.719
  0.18191E-01    20.799
  0.18391E-01    20.889
  0.18591E-01    20.959
  0.18791E-01    21.039
  0.18891E-01    21.109
  0.19091E-01    21.179
  0.19291E-01    21.259
  0.19391E-01    21.299
  0.19591E-01    21.339
  0.19790E-01    21.379
  0.19990E-01    21.409
  0.20190E-01    21.449
  0.20290E-01    21.469
  0.20490E-01    21.469
  0.20590E-01    21.469
  0.20690E-01    21.469
  0.20890E-01    21.469
  0.20990E-01    21.469
  0.21190E-01    21.449
  0.21290E-01    21.419
  0.21390E-01    21.379
  0.21590E-01    21.369
  0.21690E-01    21.369
  0.21790E-01    21.359
  0.21889E-01    21.299
  0.21989E-01    21.229
  0.22089E-01    21.149
  0.22189E-01    21.069