 lawest_2007_r10          ! 32 CHARACTER ALPHANUMERIC RUN DESCRIPTION
 padcirc 46.57         ! 24 CHARACTER ALPANUMERIC RUN IDENTIFICATION
 1                     ! NFOVER - NONFATAL ERROR OVERRIDE OPTION
 0                     ! NABOUT - ABREVIATED OUTPUT OPTION PARAMETER
-1000                  ! NSCREEN - UNIT 6 OUTPUT OPTION PARAMETER
 0                    ! IHOT - HOT START PARAMETER
 2                     ! ICS - COORDINATE SYSTEM SELECTION PARAMETER
 0                     ! IM - MODEL SELECTION PARAMETER 
 1                     ! NOLIBF - BOTTOM FRICTION TERM SELECTION PARAMETER
 3                     ! NOLIFA - FINITE AMPLITUDE TERM SELECTION PARAMETER
 0                     ! NOLICA - SPATIAL DERIVATIVE CONVECTIVE SELECTION PARAMETER
 0                     ! NOLICAT - TIME DERIVATIVE CONVECTIVE TERM SELECTION PARAMETER
 6                     ! NWP - VARIABLE BOTTOM FRICTION AND LATERAL VISCOSITY OPTION PARAMETER
surface_submergence_state
surface_directional_effective_roughness_length
surface_canopy_coefficient
mannings_n_at_sea_floor
sea_surface_height_above_geoid
primitive_weighting_in_continuity_equation
 1                     ! NCOR - VARIABLE CORIOLIS IN SPACE OPTION PARAMETER
 0                     ! NTIP - TIDAL POTENTIAL OPTION PARAMETER
 9                     ! NWS - WIND STRESS AND BAROMETRIC PRESSURE OPTION PARAMETER
 2                     ! NRAMP - RAMP FUNCTION OPTION
 9.81                  ! G - ACCELERATION DUE TO GRAVITY - DETERMINES UNITS
 -3.0                  ! TAU0 - WEIGHTING FACTOR IN GWCE
  1.0                  ! DT - TIME STEP (IN SECONDS)
 0.00                  ! STATIM - STARTING TIME (IN DAYS)
 0.00                  ! REFTIM - REFERENCE TIME (IN DAYS)
 -999999               ! WTIMINC not used in asymmetric wind model
 4.5                  ! RNDAY - TOTAL LENGTH OF SIMULATION (IN DAYS)
 0.5 0.5 0.5           ! DRAMP - DURATION OF RAMP FUNCTION (IN DAYS)
 0.35 0.30 0.35        ! TIME WEIGHTING FACTORS FOR THE GWCE EQUATION
 0.10 0 0 0.01         ! H0, NODEDRYMIN, NODEWETMIN, VELMIN
 265.5 29.0            ! SLAM0,SFEA0 - CENTER OF CPP PROJECTION (NOT USED IF ICS=1, NTIP=0, NCOR=0)
 0.0030 2.0 10 1.33333 ! FFACTOR,HBREAK,FTHETA,FGAMMA
 50.0                  ! ESL - LATERAL EDDY VISCOSITY COEFFICIENT; IGNORED IF NWP =1
 0.0                   ! CORI - CORIOLIS PARAMETER - IGNORED IF NCOR = 1
 0                     ! NTIF - TOTAL NUMBER OF TIDAL POTENTIAL CONSTITUENTS BE
 1                     ! NBFR - TOTAL NUMBER OF FORCING FREQUENCIES ON OPEN BOU
 STEADY                    ! ALPHANUMERIC DATA FOR OPEN OCEAN FORCING
 0.000000000000000  1.00000   000.00 
 STEADY       ! ALPHA NUMERIC DESCRIPTION OF ELEVATION BOUNDARY FORCING 
 0.0000 0.0000
 0.0000 0.0000
 0.0000 0.0000
 0.0000 0.0000
 0.0000 0.0000
 0.0000 0.0000
 0.0000 0.0000
 0.0000 0.0000
 0.0000 0.0000
 0.0000 0.0000
 0.0000 0.0000
 0.0000 0.0000
 0.0000 0.0000
 0.0000 0.0000
 0.0000 0.0000
 0.0000 0.0000
 0.0000 0.0000
 0.0000 0.0000
 0.0000 0.0000
 0.0000 0.0000
 0.0000 0.0000
 0.0000 0.0000
 0.0000 0.0000
 0.0000 0.0000
 0.0000 0.0000
 0.0000 0.0000
 0.0000 0.0000
 0.0000 0.0000
 0.0000 0.0000
 0.0000 0.0000
 0.0000 0.0000
 0.0000 0.0000
 0.0000 0.0000
 0.0000 0.0000
 0.0000 0.0000
 0.0000 0.0000
 0.0000 0.0000
 0.0000 0.0000
 0.0000 0.0000
 0.0000 0.0000
 0.0000 0.0000
 0.0000 0.0000
 0.0000 0.0000
 0.0000 0.0000
 0.0000 0.0000
 0.0000 0.0000
 0.0000 0.0000
 0.0000 0.0000
 0.0000 0.0000
 0.0000 0.0000
 0.0000 0.0000
 0.0000 0.0000
 0.0000 0.0000
 0.0000 0.0000
 0.0000 0.0000
 0.0000 0.0000
 0.0000 0.0000
 0.0000 0.0000
 0.0000 0.0000
 0.0000 0.0000
 0.0000 0.0000
 0.0000 0.0000
 0.0000 0.0000
 0.0000 0.0000
 0.0000 0.0000
 0.0000 0.0000
 0.0000 0.0000
 0.0000 0.0000
 0.0000 0.0000
 0.0000 0.0000
 0.0000 0.0000
 0.0000 0.0000
 0.0000 0.0000
 0.0000 0.0000
 0.0000 0.0000
 0.0000 0.0000
 0.0000 0.0000
 0.0000 0.0000
 0.0000 0.0000
 0.0000 0.0000
 0.0000 0.0000
 0.0000 0.0000
 0.0000 0.0000
 0.0000 0.0000
 0.0000 0.0000
 0.0000 0.0000
 0.0000 0.0000
 0.0000 0.0000
 0.0000 0.0000
 0.0000 0.0000
 0.0000 0.0000
 0.0000 0.0000
 0.0000 0.0000
 0.0000 0.0000
 0.0000 0.0000
 0.0000 0.0000
 0.0000 0.0000
 0.0000 0.0000
 0.0000 0.0000
 0.0000 0.0000
 0.0000 0.0000
 0.0000 0.0000
 0.0000 0.0000
 0.0000 0.0000
 0.0000 0.0000
 0.0000 0.0000
 0.0000 0.0000
 0.0000 0.0000
 0.0000 0.0000
 0.0000 0.0000
 0.0000 0.0000
 0.0000 0.0000
 0.0000 0.0000
 0.0000 0.0000
 0.0000 0.0000
 0.0000 0.0000
 0.0000 0.0000
 0.0000 0.0000
 0.0000 0.0000
 0.0000 0.0000
 0.0000 0.0000
 0.0000 0.0000
 0.0000 0.0000
 0.0000 0.0000
 0.0000 0.0000
 0.0000 0.0000
 0.0000 0.0000
 0.0000 0.0000
 0.0000 0.0000
 0.0000 0.0000
 0.0000 0.0000
 0.0000 0.0000
 0.0000 0.0000
 0.0000 0.0000
 0.0000 0.0000
 0.0000 0.0000
 0.0000 0.0000
 0.0000 0.0000
 0.0000 0.0000
 0.0000 0.0000
 0.0000 0.0000
 0.0000 0.0000
 0.0000 0.0000
 0.0000 0.0000
 0.0000 0.0000
 0.0000 0.0000
 0.0000 0.0000
 0.0000 0.0000
 0.0000 0.0000
 0.0000 0.0000
 0.0000 0.0000
 0.0000 0.0000
 0.0000 0.0000
 0.0000 0.0000
 0.0000 0.0000
 0.0000 0.0000
 0.0000 0.0000
 0.0000 0.0000
 0.0000 0.0000
 0.0000 0.0000
 0.0000 0.0000
 0.0000 0.0000
 0.0000 0.0000
 0.0000 0.0000
 0.0000 0.0000
 0.0000 0.0000
 0.0000 0.0000
 0.0000 0.0000
 0.0000 0.0000
 0.0000 0.0000
 0.0000 0.0000
 0.0000 0.0000
 0.0000 0.0000
 0.0000 0.0000
 0.0000 0.0000
 0.0000 0.0000
 0.0000 0.0000
 0.0000 0.0000
 0.0000 0.0000
 0.0000 0.0000
 0.0000 0.0000
 0.0000 0.0000
 0.0000 0.0000
 0.0000 0.0000
 0.0000 0.0000
 0.0000 0.0000
 0.0000 0.0000
 0.0000 0.0000
 0.0000 0.0000
 0.0000 0.0000
 0.0000 0.0000
 0.0000 0.0000
 0.0000 0.0000
 0.0000 0.0000
 0.0000 0.0000
 0.0000 0.0000
 0.0000 0.0000
 0.0000 0.0000
 0.0000 0.0000
 0.0000 0.0000
 0.0000 0.0000
 0.0000 0.0000
 0.0000 0.0000
 0.0000 0.0000
 0.0000 0.0000
 0.0000 0.0000
 0.0000 0.0000
 0.0000 0.0000
 0.0000 0.0000
 0.0000 0.0000
 0.0000 0.0000
 0.0000 0.0000
 0.0000 0.0000
 0.0000 0.0000
 0.0000 0.0000
 0.0000 0.0000
 0.0000 0.0000
 0.0000 0.0000
 0.0000 0.0000
 0.0000 0.0000
 0.0000 0.0000
 0.0000 0.0000
 0.0000 0.0000
 0.0000 0.0000
 0.0000 0.0000
 0.0000 0.0000
 0.0000 0.0000
 0.0000 0.0000
 0.0000 0.0000
 0.0000 0.0000
 0.0000 0.0000
 0.0000 0.0000
 0.0000 0.0000
 0.0000 0.0000
 0.0000 0.0000
 0.0000 0.0000
 0.0000 0.0000
 0.0000 0.0000
 0.0000 0.0000
 0.0000 0.0000
 0.0000 0.0000
 0.0000 0.0000
 0.0000 0.0000
 0.0000 0.0000
 0.0000 0.0000
 0.0000 0.0000
 0.0000 0.0000
 0.0000 0.0000
 0.0000 0.0000
 0.0000 0.0000
 0.0000 0.0000
 0.0000 0.0000
 0.0000 0.0000
 0.0000 0.0000
 0.0000 0.0000
 0.0000 0.0000
 0.0000 0.0000
 0.0000 0.0000
 0.0000 0.0000
 0.0000 0.0000
 0.0000 0.0000
 0.0000 0.0000
 0.0000 0.0000
 0.0000 0.0000
 0.0000 0.0000
 0.0000 0.0000
 0.0000 0.0000
 0.0000 0.0000
 0.0000 0.0000
 0.0000 0.0000
 0.0000 0.0000
 0.0000 0.0000
 0.0000 0.0000
 0.0000 0.0000
 0.0000 0.0000
 0.0000 0.0000
 0.0000 0.0000
 0.0000 0.0000
 0.0000 0.0000
 0.0000 0.0000
 0.0000 0.0000
 0.0000 0.0000
 0.0000 0.0000
 0.0000 0.0000
 0.0000 0.0000
 0.0000 0.0000
 0.0000 0.0000
 0.0000 0.0000
 0.0000 0.0000
 0.0000 0.0000
 0.0000 0.0000
 0.0000 0.0000
 110.0                ! ANGINN : INNER ANGLE THRESHOLD
1                     ! NFFR - TOTAL NUMBER OF FORCING FREQUENCIES ON FLUX BOUNDARIES
 STEADY               ! CONSTITUENT. 1  ALPHA DESCRIPTOR
 0.00000E-00  1.0 0.0   ! CONSTITUENT. 1 FREQ., NODAL FACTOR, EQUIL. ARG.
  STEADY       ! ALPHA NUMERIC DESCRIPTION OF ELEVATION BOUNDARY FORCING
   2.360 0.00   ! FLOW  BOUNDARY FORCING DATA FOR MS RIVER AT FIRST NODE  
   4.250 0.00   
   5.860 0.00   
   6.610 0.00   
   6.890 0.00   
   6.800 0.00   
   5.760 0.00   !  UPDATE ON 10/02/2006
   4.820 0.00   
   2.830 0.00   
   1.320 0.00   
   0.660 0.00   
   0.660 0.00
   0.570 0.00   ! FLOW  BOUNDARY FORCING DATA FOR MS RIVER AT LAST NODE
   2.180 0.00   ! FLOW  BOUNDARY FORCING DATA FOR ATCH RIVER AT FIRST NODE
   2.180 0.00   
   2.180 0.00   
   2.180 0.00   
   2.040 0.00   
   2.000 0.00   
   1.900 0.00               !  UPDATE ON 10/02/2006
   1.810 0.00   
   1.730 0.00   
   1.640 0.00   
   1.580 0.00   
   1.530 0.00   
   1.460 0.00                            ! FLOW  BOUNDARY FORCING DATA FOR ATCH RIVER AT LAST NODE
1 0.0 24.0  900                         ! NOUTE,TOUTSE,TOUTFE,NSPOOLE:ELEV STATION OUTPUT INFO (UNIT  61)
835                                      ! NSTAE - NUMBER OF ELEVATION RECORDING STATIONS, FOLLOWED BY LOCATIONS ON PROCEEDING LINES
-93.210957  29.179861           !  LACPR POINTS START
-93.280600  29.756902
-93.294529  29.862362
-93.321628  30.095350
-93.326324  30.133959
-93.328411  30.156915
-93.073625  29.177021
-93.003270  29.702485
-92.996873  29.744934
-92.993502  29.770487
-92.985057  29.832987
-92.978692  29.881472
-92.972782  29.925995
-92.966071  29.976004
-92.962640  30.002433
-93.306498  29.964071
-93.266769  29.629031
-93.023104  29.548251
-92.603178  29.088927
-92.551532  29.356430
-92.513128  29.555070
-92.496663  29.643529
-92.489403  29.678925
-92.482142  29.719767
-92.449147  29.891928
-92.430338  29.990060
-92.189280  29.079436
-92.085132  29.391880
-92.031526  29.552697
-92.007021  29.626213
-91.977921  29.715045
-91.947289  29.810003
-91.935795  29.843775
-91.922151  29.884975
-91.510388  29.086350
-91.418693  29.272745
-91.370592  29.373458
-91.326022  29.465138
-91.316292  29.485457
-91.253619  29.614350
-91.239597  29.643540
-91.223571  29.676851
-91.213841  29.696884
-91.195669  29.734087
-91.138255  28.982060
-91.082673  29.086761
-91.038725  29.169487
-91.022967  29.200622
-91.001696  29.241644
-90.939404  29.359392
-90.848438  29.534819
-90.820816  29.587610
-90.796001  29.634918
-90.689115  28.911402
-90.692778  29.002981
-90.695220  29.048160
-90.696441  29.082350
-90.697662  29.120202
-90.703311  29.280053
-90.711942  29.495441
-90.714533  29.565948
-90.715476  29.584794
-90.251413  29.048640
-90.270274  29.080406
-90.286157  29.109195
-90.329836  29.182655
-90.399326  29.302773
-90.549902  29.561424
-90.564037  29.586046
-90.599602  29.649424
-89.983593  29.046497
-90.027535  29.198463
-90.040351  29.240574
-90.058661  29.299163
-90.078801  29.366907
-90.128977  29.545062
-90.160126  29.650745
-90.185712  29.739741
-90.201287  29.787577
-90.212411  29.828738
-89.967548  29.154838
-89.979414  29.220102
-89.987325  29.275477
-90.010547  29.418056
-90.039514  29.608103
-90.025183  29.514080
-90.056406  29.710729
-90.067214  29.779481
-90.072318  29.811966
-89.771040  29.307794
-89.804996  29.333644
-90.071718  29.534916
-90.163737  29.604719
-90.231589  29.656118
-90.328082  29.728773
-90.374016  29.763509
-90.479997  29.843670
-90.542084  29.890925
-90.619542  29.948869
-88.920428  29.195269
-89.186057  29.371491
-89.370054  29.490700
-89.659377  29.680907
-89.722433  29.722945
-89.772037  29.755313
-89.791374  29.767924
-89.849385  29.805758
-89.909918  29.845693
-89.058666  29.448442
-89.200751  29.532936
-89.490854  29.705289
-89.546904  29.738171
-89.666695  29.809261
-89.707497  29.833244
-89.755773  29.862210
-88.959849  29.490663
-89.033677  29.566459
-89.124240  29.658991
-89.335880  29.878506
-89.502239  30.049295
-89.582958  30.131982
-89.614458  30.166435
-89.632410  30.185492
-89.670164  30.224138
-88.858080  29.643368
-89.152463  29.747342
-89.372937  29.831272
-89.495339  29.880450
-89.597874  29.921055
-89.693658  29.958674
-89.421528  29.851300
-89.786899  29.995655
-89.841352  30.017164
-89.868034  30.027782
-89.479199  30.120699
-89.586648  30.063704
-89.687557  30.008578
-89.777254  29.959992
-89.828643  29.931962
-89.868150  30.198566
-89.988683  30.181914
-90.090978  30.166054
-90.191687  30.150988
-90.412928  30.119268
-90.083048  30.330201
-90.075118  30.250110
-90.066396  30.158917
-90.059259  30.091514
-90.054501  30.043142
-90.217062  30.330994
-90.146487  30.279450
-90.083048  30.232665
-90.037848  30.199359
-89.963308  30.146230
-89.921280  30.115303
-90.140143  30.246938
-90.164725  30.170812
-90.181378  30.120854
-90.208339  30.039970
-90.168690  30.277072
-90.223406  30.214426
-90.270192  30.157331
-90.339181  30.074068
-90.362281  30.047803
-90.392848  30.011678
-89.458601  28.869553
-89.410089  28.933121
-89.318082  29.044364
-89.254515  29.155608
-89.333138  29.263506
-89.427653  29.355512
-89.504604  29.351330
-89.599956  29.399006
-89.603301  29.446682
-89.686943  29.479302
-89.786477  29.567126
-89.887684  29.612293
-89.959616  29.669169
-90.010638  29.743611
-90.017329  29.785432
-89.975508  29.868237
-89.911940  29.866564
-89.963798  29.922604
-90.029875  29.954388
-90.139446  29.936824
-90.272437  29.969444
-90.373643  29.942678
-90.447248  29.996209
-90.557375  30.049709
-90.686517  30.037726
-90.789032  30.005108
-90.837626  30.031070
-90.913514  30.104960
-90.982079  30.112283
-91.073573  30.210581
-91.210851  30.399930
-91.197566  30.502734
-93.210000  29.170000
-93.310000  30.040000
-93.070000  29.170000
-92.960000  29.970000
-92.600000  29.080000
-92.550000  29.350000
-92.470000  29.750000
-92.430000  29.990000
-92.180000  29.070000
-91.510000  29.080000
-91.340000  29.420000
-91.230000  29.640000
-91.190000  29.730000
-90.970000  29.300000
-90.950000  29.320000
-90.700000  29.330000
-90.700000  29.390000
-90.710000  29.490000
-90.710000  29.620000
-90.200000  28.970000
-90.270000  29.080000
-90.360000  29.250000
-90.540000  29.560000
-90.560000  29.580000
-90.590000  29.640000
-90.040000  29.240000
-90.110000  29.510000
-90.160000  29.650000
-90.010000  29.470000
-90.030000  29.600000
-90.060000  29.770000
-89.610000  29.180000
-90.610000  29.940000
-88.920000  29.190000
-89.370000  29.490000
-89.630000  29.660000
-89.790000  29.760000
-89.820000  29.790000
-89.890000  29.830000
-89.900000  29.840000
-89.350000  29.620000
-89.630000  29.790000
-89.690000  29.820000
-89.750000  29.860000
-89.220000  29.760000
-89.280000  29.830000
-89.370000  29.910000
-89.430000  29.980000
-89.580000  30.130000
-89.610000  30.160000
-89.630000  30.180000
-89.670000  30.220000
-88.970000  29.670000
-89.260000  29.780000
-89.520000  29.890000
-89.420000  29.850000
-89.860000  30.020000
-89.770000  29.950000
-90.190000  30.150000
-90.310000  30.130000
-90.110000  30.310000
-90.180000  30.120000
-90.200000  30.030000
-90.120000  30.330000
-90.330000  30.070000
-90.390000  30.010000
-90.380000  30.080000
-90.300000  30.060000
-90.250000  30.050000
-90.030000  30.060000
-89.960000  30.070000
-89.930000  30.090000
-89.900000  30.140000
-90.340000  30.120000
-90.280000  30.090000
-90.220000  30.070000
-90.140000  30.080000
-90.100000  30.080000
-90.030000  30.090000
-89.990000  30.100000
-89.960000  30.120000
-89.930000  30.150000
-89.920000  30.190000
-90.010000  30.140000
-90.060000  30.130000
-90.110000  30.130000
-90.230000  30.110000
-90.280000  30.130000
-90.180000  30.060000
-89.990000  30.080000
-90.100000  30.060000
-90.130000  30.100000
-90.020000  30.120000
-89.850000  30.130000
-89.840000  30.110000
-89.820000  30.110000
-89.800000  30.190000
-89.780000  30.180000
-89.760000  30.160000
-89.820000  30.160000
-89.800000  30.150000
-89.780000  30.130000
-89.840000  30.000000
-89.840000  29.980000
-89.830000  29.960000
-89.820000  29.940000
-89.870000  29.970000
-89.900000  29.990000
-89.850000  29.950000
-89.720000  29.900000
-89.700000  29.880000
-89.650000  29.870000
-89.620000  29.870000
-89.600000  29.880000
-89.710000  29.930000
-89.680000  29.920000
-89.650000  29.910000
-89.610000  29.900000
-89.670000  29.980000
-89.630000  29.970000
-89.590000  29.960000
-89.780000  30.030000
-89.760000  30.010000
-89.730000  30.000000
-89.810000  29.980000
-89.690000  30.050000
-89.630000  30.030000
-89.580000  30.010000
-90.270000  29.840000
-90.250000  29.850000
-90.230000  29.860000
-90.190000  29.840000
-90.250000  29.830000
-90.300000  29.730000
-90.270000  29.750000
-90.280000  29.700000
-90.240000  29.720000
-90.170000  29.760000
-90.230000  29.680000
-90.210000  29.700000
-90.330000  29.700000
-90.300000  29.680000
-90.280000  29.660000
-90.190000  29.550000
-90.200000  29.530000
-90.180000  29.500000
-90.130000  29.470000
-90.090000  29.670000
-90.070000  29.670000
-90.120000  29.630000
-90.120000  29.600000
-90.150000  29.510000
-89.500000  29.590000
-89.530000  29.540000
-89.820000  29.800000
-89.860000  29.790000
-89.910000  29.830000
-89.960000  29.430000
-90.310000  29.370000
-90.590000  29.350000
-90.670000  29.420000
-90.650000  29.400000
-90.440000  29.290000
-90.500000  29.280000
-90.570000  29.640000
-90.620000  29.790000
-90.560000  29.940000
-90.600000  29.920000
-90.560000  29.910000
-90.570000  29.890000
-90.340000  29.600000
-90.430000  29.720000
-90.480000  29.800000
-90.410000  29.790000
-90.830000  29.470000
-90.840000  29.400000
-90.880000  29.390000
-91.000000  29.560000
-90.960000  29.600000
-90.920000  29.230000
-90.740000  29.250000
-90.600000  29.240000
-90.560000  29.280000
-90.540000  29.450000
-90.610000  29.450000
-90.620000  29.490000
-90.220000  29.420000
-91.240000  29.420000
-91.180000  29.340000
-91.070000  29.330000
-91.070000  29.380000
-91.040000  29.520000
-91.160000  29.730000
-91.130000  29.730000
-91.110000  29.720000
-91.170000  29.620000
-91.100000  29.840000
-91.160000  29.850000
-91.170000  29.890000
-91.160000  29.920000
-91.140000  29.880000
-90.900000  29.560000
-91.140000  29.310000
-90.850000  29.230000
-90.780000  29.390000
-90.930000  29.280000
-90.530000  29.240000
-90.470000  29.240000
-89.960000  29.370000
-89.920000  29.380000
-89.660000  29.610000
-89.640000  29.530000
-89.940000  29.560000
-89.980000  29.550000
-89.770000  29.470000
-89.850000  29.460000
-89.870000  29.570000
-89.445000  30.138800
-89.391792  30.166056
-89.284592  30.218830
-89.400703  30.103100
-89.343040  30.119745
-89.266167  30.141939
-89.227730  30.153036
-89.050026  30.170134
-88.910004  30.170870
-89.488297  30.222834
-89.419518  30.261126
-89.320671  30.273170
-89.487762  30.221790
-89.419594  30.261084
-89.611208  30.235546
-89.674950  30.225361
-89.693519  30.205969
-89.709429  30.189347
-89.699593  30.179899
-89.735397  30.156562
-89.758701  30.126544
-89.767917  30.088699
-89.785664  30.075754
-89.772644  30.064008
-89.821383  30.038321
-89.839714  29.948539
-89.814475  29.918591
-89.758536  29.889837
-89.833641  29.850488
-89.914875  29.841312
-89.966613  29.803793
-89.992633  29.759411
-89.954894  29.708748
-89.935668  29.652718
-89.889635  29.633444
-89.827234  29.611648
-89.781748  29.583336
-89.726234  29.543019
-89.732554  29.533548
-89.752453  29.520669
-89.783907  29.542316
-89.807498  29.566102
-89.818210  29.553742
-89.846616  29.566770
-89.903568  29.587109
-89.923873  29.613670
-89.951810  29.619256
-89.991824  29.640423
-90.018685  29.667073
-90.008365  29.692565
-90.022568  29.732123
-90.090730  29.753129
-90.128393  29.731465
-90.169909  29.678494
-90.272696  29.555683
-90.282528  29.517050
-90.266295  29.478051
-90.220949  29.394157
-90.241537  29.337427
-90.262809  29.348563
-90.275200  29.382952
-90.292661  29.389467
-90.330288  29.433891
-90.352853  29.484372
-90.360212  29.510699
-90.411004  29.513650
-90.421118  29.493826
-90.435251  29.467211
-90.447078  29.422318
-90.484965  29.455298
-90.518432  29.440319
-90.560274  29.430564
-90.581767  29.388626
-90.617506  29.350271
-90.648930  29.294179
-90.686916  29.321409
-90.737914  29.339968
-90.740241  29.385322
-90.777874  29.404049
-90.789127  29.417436
-90.770473  29.466843
-90.804026  29.534103
-90.849507  29.607540
-90.884783  29.606196
-90.948515  29.635578
-90.987993  29.683272
-91.030958  29.664306
-91.091248  29.660873
-91.120805  29.653690
-91.160507  29.674239
-91.190366  29.688744
-91.224334  29.678199
-91.265777  29.651843
-91.303843  29.641532
-91.343241  29.640327
-91.357843  29.664708
-91.412375  29.655370
-91.442688  29.664429
-91.462569  29.674661
-91.532880  29.595762
-91.547518  29.620124
-91.528977  29.698514
-91.566149  29.726021
-91.609663  29.752084
-91.675749  29.754168
-91.744175  29.752745
-91.830897  29.783051
-91.849913  29.832910
-92.008680  29.814843
-92.095351  29.790800
-92.193592  29.749285
-92.209564  29.757387
-92.279277  29.795510
-92.318348  29.828329
-92.357164  29.835842
-92.404274  29.872678
-92.435485  29.870733
-92.494338  29.888302
-92.547639  29.896527
-92.616848  29.914586
-92.701391  29.920765
-92.754601  29.930712
-92.793362  29.939906
-92.840871  29.942311
-92.856286  29.928648
-92.894176  29.919721
-92.982564  29.898852
-93.075491  29.903421
-93.117025  29.901834
-93.193340  29.939811
-93.268129  30.002936
-93.385816  30.044563
-93.493688  30.044140
-93.611901  30.044103
-93.636654  30.081300
-89.971143  30.060561
-90.010791  30.042921
-90.035793  30.034148
-90.056529  30.034350
-90.073140  30.032706
-90.087700  30.029235
-90.098067  30.029333
-90.108457  30.027626
-90.120985  30.020524
-90.149990  30.022592
-90.187290  30.024727
-90.222377  30.039463
-90.278215  30.054357
-90.300359  30.293365
-90.413404  30.282469
-90.482183  30.339672
-90.554368  30.296089
-90.589780  30.202794
-90.503975  30.176235
-90.147110  30.409534
-90.161202  30.376365
-90.061044  30.346665
-89.950481  30.257998
-89.866149  30.248459
-89.751394  30.172365
-89.811807  30.095187
-89.825681  30.177857
-90.036274  30.036317
-90.018802  29.991096
-89.945832  30.003429
-89.916454  30.002872
-89.907110  30.012728
-89.857872  30.003228
-89.620809  29.839589
-89.572668  29.806821
-89.393275  29.678760
-89.198614  29.984097
-88.786917  29.893319
-88.855959  29.907383
-89.770772  30.042451
-89.712305  30.130151
-89.670471  30.100245
-89.495691  29.420803
-89.124024  28.988160
-89.430359  29.136246
-89.550860  29.307561
-89.844155  29.306105
-89.932852  29.261757
-90.137840  29.121813
-90.585267  29.080421
-90.356626  29.054797
-90.492628  29.207553
-90.535991  29.285409
-90.886959  29.032950
-90.936403  29.145571
-91.131431  29.210580
-91.134177  29.260940
-91.221162  29.379055
-91.271521  29.483436
-91.435417  29.521892
-91.458308  29.445895
-91.393464  29.648452
-91.355748  29.746180
-91.644507  29.726929
-92.104585  29.728489
-92.312011  29.517944
-91.580564  29.589685
-91.710010  29.413452
-91.918995  29.502348
-91.839456  29.804908
-93.149509  29.744084
-92.854747  29.645830
-92.655120  29.574089
-92.754933  29.881328
-92.564664  29.765919
-93.143271  29.943712
-93.342700  29.751676
-93.808504  29.697418
-93.621159  29.743487
-93.404125  29.866336
-93.233880  30.227232
-92.152195  29.539329
-93.469761  29.730108
-91.830256  29.664528
-91.538126  29.348551
-91.305614  29.217390  ! LACPR POINTS END
  -90.0293   30.0338   ! IPET reach points 636-773
  -90.0259   30.0347
  -90.0218   30.0358
  -90.0151   30.0379
  -90.0085   30.0405
  -89.9743   30.0562
  -89.9526   30.0710
  -89.9475   30.0749
  -89.9135   30.1086
  -89.8755   30.1406
  -89.8624   30.1183
  -89.8575   30.0903
  -89.8426   30.0740
  -89.8323   30.0613
  -89.8306   30.0512
  -89.8457   30.0371
  -89.8825   30.0230
  -89.9049   30.0250
  -89.9084   30.0275
  -89.9208   30.0106
  -89.9314   30.0086
  -89.9380   30.0063
  -89.9654   30.0022
  -89.9919   30.0000
  -90.0010   29.9995
  -90.0083   29.9985
  -90.0153   29.9974
  -90.0219   30.0011
  -90.0278   30.0179
  -90.2809   30.0075
  -90.2812   30.0243
  -90.2804   30.0396
  -90.2273   30.0374
  -90.1486   30.0209
  -90.1222   30.0053
  -90.1497   29.9585
  -90.2142   29.9333
  -90.2837   29.9992
  -90.3938   30.0086
  -90.3589   29.9895
  -90.3064   29.9770
  -90.3624   29.9422
  -90.4213   30.0126
  -90.4060   30.0240
  -90.1221   30.0062
  -90.0998   30.0082
  -90.0990   30.0238
  -90.0991   30.0077
  -90.0985   30.0248
  -90.0698   30.0082
  -90.0727   30.0265
  -90.0694   30.0100
  -90.0725   30.0277
  -90.1169   30.0222
  -90.1074   30.0270
  -90.0830   30.0271
  -90.0695   30.0328
  -90.0610   30.0336
  -90.0473   30.0351
  -90.0364   30.0314
  -90.0329   30.0185
  -90.0283   29.9988
  -90.0247   29.9855
  -90.0242   29.9754
  -90.0274   29.9656
  -90.0286   29.9621
  -90.0429   29.9603
  -90.0614   29.9344
  -90.1134   29.9114
  -90.1353   29.9363
  -90.1407   29.9562
  -90.0226   29.9746
  -90.0186   29.9824
  -89.9846   29.9968
  -89.8558   29.9503
  -89.8410   29.8524
  -89.9992   29.9416
  -89.9280   29.9252
  -89.8989   29.8815
  -90.0251   29.9647
  -90.0032   29.8803
  -90.0672   29.8197
  -89.9845   29.8487
  -90.0312   29.7452
  -90.0159   29.7428
  -90.0062   29.6520
  -89.9639   29.6690
  -89.7696   29.5290
  -89.7269   29.5203
  -89.7185   29.4945
  -89.6621   29.4497
  -89.6244   29.4357
  -89.6109   29.4454
  -89.6117   29.3928
  -89.6171   29.4106
  -89.5715   29.3624
  -89.4364   29.3465
  -89.4251   29.3516
  -89.5683   29.3716
  -89.8812   29.6129
  -89.7727   29.5604
  -89.8763   29.6263
  -89.7643   29.5656
  -89.9607   29.8253
  -89.9870   29.7447
  -89.9826   29.8403
  -89.9987   29.7395
  -90.3073   29.9148
  -90.2556   29.8961
  -90.2027   29.8689
  -90.1591   29.8880
  -90.1591   29.8880
  -90.1591   29.8880
  -90.1591   29.8880
  -90.2252   29.9361
  -90.1591   29.8880
  -90.1405   29.8857
  -90.1183   29.8644
  -90.1186   29.8331
  -90.1075   29.7988
  -90.0815   29.8084
  -90.0646   29.8561
  -90.0787   29.8962
  -90.0836   29.9091
  -90.1129   29.9041
  -90.0118   29.9411
  -90.0626   29.9222
  -90.0711   29.8752
  -90.0193   29.8553
  -89.9717   29.9154
  -89.9237   29.9151
  -89.9717   29.9154
  -89.9778   29.9106
  -89.9856   29.9061
  -90.0836   29.9091
  -90.1210   30.0216
  -90.0967   30.0276
  -90.0743   30.0308              ! IPET POINTS END
 -8.8758647e+01 3.0357566e+01     !  MSCIP POINTS START
 -8.9587308e+01 3.0246308e+01 
 -8.9328296e+01 3.0367018e+01 
 -8.9309438e+01 3.0321847e+01 
 -8.9311965e+01 3.0305345e+01 
 -8.8853448e+01 3.0391335e+01 
 -8.8836665e+01 3.0393750e+01 
 -8.8850504e+01 3.0406597e+01 
 -8.8862458e+01 3.0424814e+01 
 -8.8723694e+01 3.0349604e+01 
 -8.8563703e+01 3.0339701e+01 
 -8.8526846e+01 3.0337220e+01 
 -8.8507001e+01 3.0363680e+01 
 -8.8563611e+01 3.0366460e+01 
 -8.8859571e+01 3.0389492e+01 
 -8.8742120e+01 3.0764485e+01 
 -8.8654146e+01 3.0695155e+01 
 -8.8563235e+01 3.0648653e+01 
 -8.8553122e+01 3.0582447e+01 
 -8.8543380e+01 3.0476249e+01 
 -8.8560860e+01 3.0400702e+01 
 -8.8540862e+01 3.0342657e+01 
 -8.8636910e+01 3.0464795e+01 
 -8.8715723e+01 3.0534957e+01 
 -8.8700089e+01 3.0424517e+01 
 -8.8649505e+01 3.0418900e+01 
 -8.8637030e+01 3.0360255e+01 
 -8.8748388e+01 3.0473989e+01 
 -8.8728870e+01 3.0439004e+01 
 -8.8691226e+01 3.0346471e+01 
 -8.8757338e+01 3.0361533e+01 
 -8.8772958e+01 3.0396852e+01 
 -8.8820805e+01 3.0398962e+01 
 -8.8826994e+01 3.0420357e+01 
 -8.8845383e+01 3.0471015e+01 
 -8.8876546e+01 3.0463849e+01 
 -8.8902046e+01 3.0446825e+01 
 -8.8899620e+01 3.0413823e+01 
 -8.8959124e+01 3.0400161e+01 
 -8.8961379e+01 3.0416991e+01 
 -8.8895608e+01 3.0392522e+01 
 -8.8958155e+01 3.0391906e+01 
 -8.8941170e+01 3.0488605e+01 
 -8.9086217e+01 3.0459937e+01 
 -8.9090701e+01 3.0415762e+01 
 -8.9043895e+01 3.0387420e+01 
 -8.9089295e+01 3.0363405e+01 
 -8.9282813e+01 3.0336141e+01 
 -8.9284870e+01 3.0303430e+01 
 -8.9202084e+01 3.0327720e+01 
 -8.9360680e+01 3.0387794e+01 
 -8.9292027e+01 3.0390209e+01 
 -8.9230728e+01 3.0374603e+01 
 -8.9692140e+01 3.0543589e+01  
 -8.9417539e+01 3.0255418e+01  
 -8.9361098e+01 3.0283835e+01  
 -8.9510480e+01 3.0330517e+01  
 -8.9547583e+01 3.0426618e+01  
 -8.9610133e+01 3.0356637e+01  
 -8.9405540e+01 3.0384333e+01  
 -8.9326846e+01 3.0332891e+01  
 -8.9613648e+01 3.0259559e+01            ! MSCIP POINTS END
1 0.0 24.0  900                         ! NOUTV,TOUTSV,TOUTFV,NSPOOLV:VEL STATION OUTPUT INFO (UNIT  62)
835                                      ! NSTAV - NUMBER OF ELEVATION RECORDING STATIONS, FOLLOWED BY LOCATIONS ON PROCEEDING LINES
-93.210957  29.179861              ! LACPR POINTS START
-93.280600  29.756902
-93.294529  29.862362
-93.321628  30.095350
-93.326324  30.133959
-93.328411  30.156915
-93.073625  29.177021
-93.003270  29.702485
-92.996873  29.744934
-92.993502  29.770487
-92.985057  29.832987
-92.978692  29.881472
-92.972782  29.925995
-92.966071  29.976004
-92.962640  30.002433
-93.306498  29.964071
-93.266769  29.629031
-93.023104  29.548251
-92.603178  29.088927
-92.551532  29.356430
-92.513128  29.555070
-92.496663  29.643529
-92.489403  29.678925
-92.482142  29.719767
-92.449147  29.891928
-92.430338  29.990060
-92.189280  29.079436
-92.085132  29.391880
-92.031526  29.552697
-92.007021  29.626213
-91.977921  29.715045
-91.947289  29.810003
-91.935795  29.843775
-91.922151  29.884975
-91.510388  29.086350
-91.418693  29.272745
-91.370592  29.373458
-91.326022  29.465138
-91.316292  29.485457
-91.253619  29.614350
-91.239597  29.643540
-91.223571  29.676851
-91.213841  29.696884
-91.195669  29.734087
-91.138255  28.982060
-91.082673  29.086761
-91.038725  29.169487
-91.022967  29.200622
-91.001696  29.241644
-90.939404  29.359392
-90.848438  29.534819
-90.820816  29.587610
-90.796001  29.634918
-90.689115  28.911402
-90.692778  29.002981
-90.695220  29.048160
-90.696441  29.082350
-90.697662  29.120202
-90.703311  29.280053
-90.711942  29.495441
-90.714533  29.565948
-90.715476  29.584794
-90.251413  29.048640
-90.270274  29.080406
-90.286157  29.109195
-90.329836  29.182655
-90.399326  29.302773
-90.549902  29.561424
-90.564037  29.586046
-90.599602  29.649424
-89.983593  29.046497
-90.027535  29.198463
-90.040351  29.240574
-90.058661  29.299163
-90.078801  29.366907
-90.128977  29.545062
-90.160126  29.650745
-90.185712  29.739741
-90.201287  29.787577
-90.212411  29.828738
-89.967548  29.154838
-89.979414  29.220102
-89.987325  29.275477
-90.010547  29.418056
-90.039514  29.608103
-90.025183  29.514080
-90.056406  29.710729
-90.067214  29.779481
-90.072318  29.811966
-89.771040  29.307794
-89.804996  29.333644
-90.071718  29.534916
-90.163737  29.604719
-90.231589  29.656118
-90.328082  29.728773
-90.374016  29.763509
-90.479997  29.843670
-90.542084  29.890925
-90.619542  29.948869
-88.920428  29.195269
-89.186057  29.371491
-89.370054  29.490700
-89.659377  29.680907
-89.722433  29.722945
-89.772037  29.755313
-89.791374  29.767924