 ASGS %StormName%
 %EnsembleID%
 1             ! NFOVER - NONFATAL ERROR OVERRIDE OPTION
 2             ! NABOUT - ABREVIATED OUTPUT OPTION PARAMETER
%NSCREEN%   ! output frequency (in time steps) to STDOUT or adcirc.log
 %IHOT%        !  IHOT - HOT START PARAMETER
 2             ! ICS - COORDINATE SYSTEM SELECTION PARAMETER
 511111  ! smagorinski ! IM - MODEL SELECTION PARAMETER 
 1             ! NOLIBF - BOTTOM FRICTION TERM SELECTION PARAMETER
 2             ! NOLIFA - FINITE AMPLITUDE TERM SELECTION PARAMETER
 0             ! NOLICA - SPATIAL DERIVATIVE CONVECTIVE SELECTION PARAMETER
 0             ! NOLICAT - TIME DERIVATIVE CONVECTIVE TERM SELECTION PARAMETER
 8             ! NWP - number of nodal attributes
elemental_slope_limiter
sea_surface_height_above_geoid
primitive_weighting_in_continuity_equation
average_horizontal_eddy_viscosity_in_sea_water_wrt_depth
mannings_n_at_sea_floor
surface_submergence_state
surface_canopy_coefficient
surface_directional_effective_roughness_length 
1            ! NCOR - VARIABLE CORIOLIS IN SPACE OPTION PARAMETER
1            ! NTIP - TIDAL POTENTIAL OPTION PARAMETER
%NWS%        !  NWS - WIND STRESS AND BAROMETRIC PRESSURE OPTION PARAMETER
1            ! NRAMP - RAMP FUNCTION OPTION
9.80665      ! G - ACCELERATION DUE TO GRAVITY - DETERMINES UNITS
-3.0         ! TAU0 - WEIGHTING FACTOR IN GWCE
 %DT%        ! DT - TIME STEP (IN SECONDS)
0.00         ! STATIM - STARTING TIME (IN DAYS)
0.00         ! REFTIM - REFERENCE TIME (IN DAYS)
 %WTIMINC%   ! WTIMINC and RSTIMINC in (seconds)
 %RNDAY%      ! RNDAY - TOTAL LENGTH OF SIMULATION (IN DAYS)
 3.0              ! DRAMP - DURATION OF RAMP FUNCTION (IN DAYS)
0.35 0.30 0.35    ! TIME WEIGHTING FACTORS FOR THE GWCE EQUATION
0.10 12 12 0.10   ! H0, NODEDRYMIN, NODEWETMIN, VELMIN
-91.330955 28.084893      ! SLAM0,SFEA0 - CENTER OF CPP PROJECTION (NOT USED IF ICS=1, NTIP=0, NCOR=0)
0.00026 2.0 10 1.33333 !  FFACTOR,HBREAK,FTHETA,FGAMMA
-0.05   ! ESLM - SPATIALLY CONSTANT HORIZONTAL EDDY VISCOSITY FOR THE MOMENTUM EQUATIONS IGNORED IF NWP=1
0.0    ! CORI - CORIOLIS PARAMETER - IGNORED IF NCOR = 1
8     ! NTIF - TOTAL NUMBER OF TIDAL POTENTIAL CONSTITUENTS BEING FORCED
Q1                                                                              
0.019303  6.495854130e-05 0.695000    %Q1NF%   %Q1EQARG%  !Q1
O1 
0.100818  6.759774407e-05 0.695000    %O1NF%   %O1EQARG%  !O1
P1 
0.047037  7.252294576e-05 0.706000    %P1NF%   %P1EQARG%  !P1
K1 
0.141909  7.292115851e-05 0.736000    %K1NF%   %K1EQARG%  !K1
N2 
0.046510  1.378796998e-04 0.693000    %N2NF%   %N2EQARG%  !N2
M2 
0.242922  1.405189028e-04 0.693000    %M2NF%   %M2EQARG%  !M2
S2 
0.113308  1.454441043e-04 0.693000    %S2NF%   %S2EQARG%  !S2
K2 
0.030779  1.458423170e-04 0.693000    %K2NF%   %K2EQARG%  !K2
8                ! NBFR 
Q1  
 6.495854130e-05  %Q1NF%   %Q1EQARG%  !Q1
O1  
 6.759774407e-05  %O1NF%   %O1EQARG%  !O1
P1  
 7.252294576e-05  %P1NF%   %P1EQARG%  !P1
K1  
 7.292115851e-05  %K1NF%   %K1EQARG%  !K1
N2  
 1.378796998e-04  %N2NF%   %N2EQARG%  !N2
M2  
 1.405189028e-04  %M2NF%   %M2EQARG%  !M2 
S2  
 1.454441043e-04  %S2NF%   %S2EQARG%  !S2
K2  
 1.458423170e-04  %K2NF%   %K2EQARG%  !K2
Q1 
 1.551166987e-02      219.0540419 
 1.550262087e-02      218.3945235 
 1.549600946e-02      217.5921939 
 1.548802743e-02      217.0152038 
 1.547615291e-02      216.6784865 
 1.546116814e-02      216.4053724 
 1.544540940e-02       216.151121 
 1.542995493e-02      215.8963472 
 1.541480454e-02        215.64104 
 1.540019585e-02      215.3893313 
 1.538542086e-02      215.1428482 
 1.536801609e-02       214.931378 
 1.534785689e-02      214.7551664 
 1.532497225e-02      214.5648391 
 1.530225544e-02      214.3739297 
 1.527970725e-02      214.1824397 
 1.525724519e-02      213.9937058 
 1.523114789e-02      213.8115566 
 1.520444212e-02      213.6574459 
 1.517781577e-02      213.5038334 
 1.515129731e-02      213.3496727 
 1.512487871e-02      213.1956276 
 1.509842055e-02      213.0543267 
 1.507188676e-02      212.9267519 
 1.504541126e-02      212.7998903 
 1.502262360e-02      212.6900556 
 1.499988949e-02      212.5798787 
 1.497729320e-02      212.4740671 
 1.495495575e-02      212.3800301 
 1.492975503e-02       212.280623 
 1.490459709e-02       212.180871 
 1.487948216e-02      212.0807727 
 1.485444152e-02      211.9816964 
 1.483219287e-02      211.9035243 
 1.481020639e-02      211.8359293 
 1.478826177e-02      211.7691937 
 1.476633542e-02      211.7022541 
 1.474424808e-02       211.634559 
 1.472244136e-02      211.5689858 
 1.469526347e-02      211.4969778 
 1.466893804e-02      211.4321787 
 1.464406061e-02      211.3706869 
 1.461971293e-02      211.3102612 
 1.459957124e-02      211.2619757 
 1.457747486e-02      211.2132038 
 1.455708100e-02        211.16902 
 1.452379766e-02      211.0966037 
 1.449583581e-02      211.0377558 
 1.446955984e-02      210.9868359 
 1.444417928e-02      210.9376518 
 1.441890331e-02      210.8888585 
 1.439348247e-02      210.8437024 
 1.436841385e-02      210.8004154 
 1.433917796e-02       210.749797 
 1.431039745e-02      210.7038611 
 1.427579599e-02      210.6507858 
 1.424132998e-02      210.5990821 
 1.420546626e-02      210.5503228 
 1.416965324e-02      210.5018763 
 1.411508086e-02      210.4353865 
 1.406144960e-02       210.372768 
 1.403224493e-02      210.3398719 
 1.400331387e-02      210.3079627 
 1.395958061e-02      210.2627216 
 1.391624379e-02      210.2189787 
 1.388442564e-02      210.1878044 
 1.385297144e-02      210.1576343 
 1.381137132e-02      210.1195897 
 1.377051874e-02      210.0821423 
 1.372614822e-02      210.0412522 
 1.368281680e-02      209.9994706 
 1.364380770e-02      209.9588381 
 1.360603763e-02      209.9149117 
 1.357461101e-02      209.8743657 
 1.354359617e-02      209.8321842 
 1.351384758e-02      209.7866038 
 1.348462157e-02      209.7394851 
 1.345577631e-02      209.6901612 
 1.342706353e-02       209.639922 
 1.339877256e-02      209.5875576 
 1.337060498e-02      209.5343982 
 1.333955344e-02      209.4728699 
 1.330857809e-02      209.4099596 
 1.327605037e-02      209.3387065 
 1.324385192e-02      209.2640102 
 1.321155060e-02      209.1836062 
 1.318130574e-02      209.0950319 
 1.314563592e-02      208.9813983 
 1.311123270e-02      208.8614431 
 1.307880198e-02      208.7364612 
 1.304730842e-02      208.6059925 
 1.302574062e-02      208.5120422 
 1.300493115e-02      208.4174967 
 1.298515694e-02      208.3264861 
 1.296070430e-02      208.2185157 
 1.293479510e-02      208.1045391 
 1.291162837e-02      208.0019631 
 1.288994382e-02      207.9074685 
 1.286705159e-02      207.8096659 
 1.284075958e-02      207.6971929 
 1.281167507e-02      207.5733566 
 1.278354482e-02      207.4581724 
 1.275935559e-02      207.3598109 
 1.273616161e-02      207.2659313 
 1.270682951e-02      207.1494352 
 1.268275453e-02      207.0539963 
 1.265831356e-02      206.9567131 
 1.263460450e-02       206.860619 
 1.261012989e-02      206.7585773 
 1.258577857e-02      206.6544856 
 1.254669793e-02      206.4823141 
 1.250635233e-02       206.297836 
 1.246773504e-02       206.119309 
 1.242864548e-02      205.9405159 
 1.238969421e-02      205.7608936 
 1.235027711e-02      205.5808653 
 1.231123161e-02      205.3987883 
 1.227218552e-02       205.214737 
 1.223326436e-02      205.0282482 
 1.219464156e-02      204.8397416 
 1.215610041e-02      204.6503824 
 1.211372902e-02      204.4410363 
 1.207821399e-02      204.2666572 
 1.203975536e-02      204.0747448 
 1.198214206e-02      203.7872576 
 1.192480858e-02      203.4963311 
 1.186064634e-02      203.1662974 
 1.179698430e-02      202.8320926 
 1.171557779e-02      202.3943172 
 1.163512268e-02       201.948663 
 1.156093334e-02      201.5256572 
 1.148759629e-02      201.0967606 
 1.141486725e-02      200.6624356 
 1.134295637e-02      200.2223603 
 1.126168527e-02      199.7119021 
 1.118157128e-02      199.1935273 
 1.110264370e-02      198.6670707 
 1.102491850e-02      198.1336421 
 1.095553658e-02      197.6431607 
 1.088727226e-02      197.1468147 
 1.082015094e-02       196.644061 
 1.075415536e-02      196.1347808 
 1.067632353e-02      195.5119462 
 1.060027884e-02        194.87997 
 1.052617345e-02      194.2389048 
 1.045407090e-02      193.5888689 
 1.038210763e-02      192.9110174 
 1.031251228e-02      192.2235699 
 1.024532687e-02      191.5269351 
 1.018066268e-02      190.8213467 
 1.012026783e-02      190.1271941 
 1.006240628e-02      189.4249315 
 1.000716142e-02      188.7144378 
 9.954659301e-03      187.9966776 
 9.906291860e-03       187.292717 
 9.860710980e-03      186.5828962 
 9.817898751e-03      185.8672046 
 9.777861835e-03      185.1457342 
 9.737680132e-03       184.354922 
 9.701052984e-03      183.5586068 
 9.668098147e-03      182.7574817 
 9.638965796e-03      181.9524806 
 9.615730649e-03      181.2103197 
 9.595819763e-03      180.4659834 
 9.579418637e-03      179.7197886 
 9.566526437e-03      178.9725083 
 9.558349925e-03      178.3129388 
 9.553217053e-03      177.6542369 
 9.550728463e-03      176.9937689 
 9.551263298e-03       176.334485 
 9.555462175e-03      175.6353677 
 9.563639656e-03      174.9408115 
 9.575423473e-03      174.2484481 
 9.590545779e-03      173.5588879 
 9.612186109e-03      172.7907258 
 9.638739959e-03      172.0326057 
 9.671446558e-03      171.2912193 
 9.707988063e-03       170.555165 
 9.746723483e-03      169.9276958 
 9.789694328e-03      169.3160251 
 9.834871708e-03      168.7047648 
 9.883795123e-03      168.1064663 
 9.909487658e-03      167.8118639 
 9.936167396e-03       167.520551 
 9.963919310e-03      167.2342423 
 9.992827051e-03      166.9528029 
 1.002279334e-02      166.6765071 
 1.005382787e-02      166.4060956 
 1.008583643e-02      166.1399985 
 1.011910426e-02      165.8784264 
 1.015524226e-02      165.6056061 
 1.019244180e-02      165.3365486 
 1.023056951e-02      165.0716684 
 1.026919393e-02      164.8104225 
 1.030862008e-02      164.5519733 
 1.034806683e-02      164.2965322 
 1.038721718e-02      164.0438415 
 1.042580252e-02      163.7944585 
 1.046398413e-02      163.5427207 
 1.049995087e-02      163.2984111 
 1.053260571e-02      163.0661396 
 1.056045788e-02      162.8511442 
 1.057333206e-02       162.744392 
 1.058652425e-02      162.6248165 
 1.059723901e-02      162.5120456 
 1.060445208e-02      162.4018282 
 1.060641523e-02      162.3119548 
 1.059832956e-02       162.181088 
 1.057510943e-02      161.9804182 
 1.046545082e-02      161.4483153 
 1.005004294e-02      160.8540474 
 9.379472526e-03      160.5151194 
 7.947629939e-03      161.3870473 
 6.583169769e-03      162.2449863 
 5.739511317e-03      162.8908175 
 5.092907797e-03      164.8720584 
 4.502482268e-03      167.5722693 
 3.949865837e-03      172.2153403 
 3.422898083e-03      178.9769719 
 2.971672643e-03      188.8349406 
 2.811860406e-03      195.5835784 
 2.694687780e-03      203.0688867 
 2.624078047e-03      211.4992633 
 2.612457596e-03      220.2588096 
 2.648801182e-03       230.037745 
 2.758107173e-03      239.7502739 
 2.958565048e-03      248.6360363 
 3.242275446e-03      256.3315772 
 3.565463341e-03      262.3296057 
 3.946560606e-03      266.8658516 
 4.329492876e-03      270.4090459 
 4.717136292e-03      273.0025698 
 5.132513392e-03      275.1374631 
 5.588059224e-03      277.0875177 
 6.135461118e-03      278.5837141 
 6.567300474e-03      279.3814656 
 6.957597261e-03      280.1135806 
 7.518494978e-03      279.9739615 
O1 
 8.083360603e-02      237.3473439 
 8.079549499e-02      236.6436262 
 8.077703403e-02      235.7860164 
 8.074492898e-02      235.1711261 
 8.068289859e-02      234.8145494 
 8.059560003e-02      234.5250764 
 8.050163614e-02       234.255432 
 8.040945646e-02      233.9851548 
 8.031906044e-02      233.7142338 
 8.023186732e-02      233.4470567 
 8.014399349e-02      233.1857423 
 8.004249953e-02      232.9639491 
 7.992663468e-02        232.78198 
 7.979534868e-02      232.5860384 
 7.966498877e-02      232.3894378 
 7.953555977e-02      232.1921796 
 7.940668189e-02      231.9979611 
 7.925780381e-02      231.8130238 
 7.910617351e-02      231.6591713 
 7.895496745e-02       231.505883 
 7.880431966e-02      231.3519984 
 7.865419554e-02      231.1982443 
 7.850400954e-02      231.0584489 
 7.835357312e-02      230.9336954 
 7.820343408e-02      230.8097375 
 7.807416621e-02      230.7023846 
 7.794516304e-02      230.5946674 
 7.781724563e-02      230.4916229 
 7.769164125e-02      230.4011844 
 7.755047101e-02      230.3064012 
 7.740950084e-02      230.2112639 
 7.726873189e-02      230.1157708 
 7.712853168e-02      230.0213283 
 7.700551692e-02      229.9476372 
 7.688546397e-02        229.88483 
 7.676577230e-02      229.8229174 
 7.664616046e-02      229.7608063 
 7.652565023e-02      229.6979847 
 7.640691156e-02      229.6372839 
 7.626061808e-02      229.5717046 
 7.611978616e-02      229.5133313 
 7.598668083e-02      229.4579314 
 7.585639118e-02      229.4034862 
 7.574886948e-02      229.3602498 
 7.563153711e-02      229.3172368 
 7.552337610e-02      229.2784293 
 7.534683010e-02      229.2148195 
 7.519927986e-02       229.163349 
 7.506220427e-02      229.1192839 
 7.492985360e-02      229.0767423 
 7.479820241e-02      229.0345196 
 7.466759561e-02      228.9952459 
 7.453941119e-02      228.9575249 
 7.438993708e-02       228.913406 
 7.424451967e-02      228.8727208 
 7.407069951e-02      228.8253026 
 7.389794214e-02      228.7787886 
 7.371962205e-02      228.7336833 
 7.354166869e-02      228.6887287 
 7.327224300e-02      228.6246138 
 7.300739634e-02      228.5624716 
 7.286304470e-02      228.5289342 
 7.271986230e-02       228.495924 
 7.250269574e-02      228.4471556 
 7.228653964e-02      228.3985675 
 7.212704362e-02      228.3627193 
 7.196897451e-02      228.3271599 
 7.175887603e-02      228.2799863 
 7.155125890e-02       228.232225 
 7.132440078e-02      228.1789034 
 7.109875511e-02      228.1247636 
 7.089278309e-02       228.073334 
 7.068925443e-02       228.019557 
 7.051554943e-02      227.9723273 
 7.034186638e-02      227.9243138 
 7.017098182e-02      227.8743596 
 7.000124797e-02      227.8234447 
 6.983122176e-02      227.7710342 
 6.966110938e-02      227.7179153 
 6.949204729e-02      227.6625582 
 6.932329384e-02      227.6063372 
 6.913592516e-02      227.5412994 
 6.894847035e-02      227.4748484 
 6.874967507e-02      227.4000992 
 6.855068282e-02      227.3224007 
 6.834806459e-02      227.2396309 
 6.815079922e-02      227.1493427 
 6.791272940e-02      227.0331322 
 6.767650601e-02      226.9088609 
 6.744799105e-02      226.7764456 
 6.722137256e-02      226.6369282 
 6.706381624e-02      226.5358895 
 6.690940085e-02      226.4342798 
 6.676210251e-02      226.3363921 
 6.658209277e-02      226.2210985 
 6.639199256e-02      226.0995332 
 6.622274412e-02      225.9903542 
 6.606583247e-02       225.889902 
 6.590203065e-02      225.7861265 
 6.571599064e-02      225.6668958 
 6.551204447e-02      225.5354982 
 6.531842397e-02      225.4127676 
 6.515316519e-02        225.30761 
 6.499561887e-02      225.2069651 
 6.479792316e-02      225.0812346 
 6.463605096e-02      224.9777695 
 6.447187260e-02      224.8713524 
 6.431228756e-02      224.7656243 
 6.414695663e-02      224.6523442 
 6.398207273e-02      224.5356259 
 6.371684135e-02      224.3402813 
 6.344268103e-02      224.1277805 
 6.318144449e-02      223.9203268 
 6.291917636e-02      223.7120816 
 6.265865515e-02       223.502781 
 6.239646522e-02      223.2923269 
 6.213660915e-02      223.0776073 
 6.187735648e-02      222.8580193 
 6.161878987e-02      222.6331661 
 6.136196335e-02      222.4045323 
 6.110495806e-02      222.1740351 
 6.082243851e-02      221.9186458 
 6.058560270e-02      221.7052895 
 6.032848817e-02      221.4699229 
 5.994297896e-02      221.1161017 
 5.955746391e-02      220.7561517 
 5.912369023e-02      220.3470223 
 5.869014871e-02      219.9322231 
 5.813260090e-02      219.3859396 
 5.757963103e-02      218.8240215 
 5.706855735e-02      218.2859953 
 5.656164373e-02      217.7390771 
 5.605693727e-02       217.186488 
 5.555662202e-02      216.6267025 
 5.499095508e-02      215.9761342 
 5.443376770e-02      215.3132413 
 5.388569387e-02      214.6380735 
 5.334712879e-02      213.9526411 
 5.286815949e-02       213.320397 
 5.239892396e-02      212.6785928 
 5.193979450e-02      212.0263001 
 5.149093674e-02      211.3632453 
 5.096485446e-02      210.5489609 
 5.045518783e-02      209.7191677 
 4.996315171e-02      208.8740756 
 4.948933689e-02      208.0138922 
 4.902173397e-02      207.1137854 
 4.857508655e-02      206.1983283 
 4.814940093e-02      205.2683187 
 4.774572428e-02      204.3245123 
 4.737507074e-02      203.3944711 
 4.702582985e-02      202.4521916 
 4.669914750e-02      201.4983871 
 4.639496419e-02      200.5344943 
 4.612153785e-02      199.5896522 
 4.587047090e-02      198.6386831 
 4.564164131e-02      197.6814181 
 4.543492351e-02      196.7192263 
 4.523572523e-02      195.6689358 
 4.506369052e-02      194.6158418 
 4.491865647e-02      193.5629073 
 4.480094558e-02      192.5116905 
 4.471707478e-02      191.5500561 
 4.465537488e-02      190.5936118 
 4.461736422e-02      189.6431172 
 4.460195234e-02      188.7009444 
 4.460896478e-02      187.8771369 
 4.463411269e-02      187.0626122 
 4.467711858e-02       186.255233 
 4.473838589e-02      185.4583827 
 4.482470224e-02      184.6241585 
 4.493295141e-02        183.80783 
 4.506360579e-02       183.005608 
 4.521440029e-02      182.2201094 
 4.541066079e-02      181.3626238 
 4.563414959e-02      180.5349497 
 4.589050285e-02      179.7461331 
 4.616855211e-02      178.9886176 
 4.644567101e-02      178.3625496 
 4.674698498e-02      177.7727535 
 4.706683656e-02      177.2054964 
 4.741123793e-02      176.6725932 
 4.759212535e-02      176.4193743 
 4.777955862e-02      176.1748563 
 4.797429117e-02      175.9415586 
 4.817584501e-02      175.7182239 
 4.838560461e-02      175.5061086 
 4.860166849e-02      175.3049682 
 4.882619176e-02      175.1133102 
 4.905931863e-02      174.9311577 
 4.931460109e-02      174.7476833 
 4.957931972e-02      174.5716999 
 4.985325171e-02      174.4030945 
 5.013416607e-02      174.2395075 
 5.042480255e-02       174.078762 
 5.072052708e-02      173.9185746 
 5.101915880e-02      173.7565223 
 5.131782989e-02      173.5901152 
 5.161770665e-02      173.4135885 
 5.190383844e-02      173.2320459 
 5.216379508e-02      173.0478673 
 5.238458024e-02      172.8677154 
 5.248356110e-02      172.7754707 
 5.258105965e-02      172.6708941 
 5.265471615e-02      172.5707616 
 5.269736117e-02      172.4693533 
 5.270210530e-02      172.3817892 
 5.263764149e-02       172.241433 
 5.247701559e-02       172.012724 
 5.180993694e-02      171.3442178 
 4.935713704e-02       170.336181 
 4.522960343e-02      169.4287677 
 3.594992672e-02       169.326994 
 2.700907435e-02      167.5050526 
 2.147002925e-02      164.9251948 
 1.686425295e-02      163.5345141 
 1.249367111e-02       162.144691 
 7.852144691e-03      163.6378119 
 2.934095310e-03      173.8015707 
 2.708571572e-03       314.876486 
 5.556931835e-03      322.7942239 
 8.453534072e-03      325.3136618 
 1.148430270e-02      326.4802843 
 1.453667007e-02      327.1520222 
 1.788690442e-02      328.0785938 
 2.136290376e-02       328.859401 
 2.491049657e-02      329.1849246 
 2.853447642e-02      329.2028503 
 3.197512925e-02      329.0842258 
 3.533615681e-02      328.5018889 
 3.853920886e-02      328.0233363 
 4.152982831e-02      327.4279925 
 4.459492675e-02      326.7803027 
 4.791040036e-02      326.1721586 
 5.162499096e-02      325.2727637 
 5.444222032e-02      324.5206922 
 5.701328478e-02      323.9791667 
 6.019450910e-02      322.5481193 
P1 
 3.143045006e-02      249.8331595 
 3.141808408e-02      249.0317714 
 3.141533984e-02       248.052779 
 3.140705158e-02      247.3529034 
 3.138550150e-02      246.9501986 
 3.135428665e-02      246.6266151 
 3.132061306e-02      246.3264794 
 3.128779974e-02      246.0256964 
 3.125584705e-02      245.7242575 
 3.122525168e-02      245.4270465 
 3.119412507e-02      245.1365881 
 3.115516889e-02      244.8911585 
 3.110800737e-02       244.691042 
 3.105416403e-02       244.475814 
 3.100075623e-02      244.2598244 
 3.094778635e-02      244.0430754 
 3.089490976e-02      243.8296847 
 3.083204409e-02      243.6269699 
 3.076645690e-02      243.4588073 
 3.070101433e-02      243.2912127 
 3.063583166e-02      243.1228934 
 3.057084632e-02      242.9546547 
 3.050490799e-02      242.8018195 
 3.043786458e-02      242.6655852 
 3.037087771e-02      242.5301631 
 3.031320804e-02      242.4128195 
 3.025566140e-02      242.2950196 
 3.019856707e-02      242.1823179 
 3.014241330e-02      242.0834696 
 3.007924121e-02      241.9799001 
 3.001616203e-02      241.8758855 
 2.995317638e-02      241.7714236 
 2.989055290e-02      241.6680331 
 2.983646760e-02      241.5871522 
 2.978452958e-02       241.518003 
 2.973283601e-02      241.4497926 
 2.968118036e-02      241.3813389 
 2.962914028e-02      241.3120771 
 2.957806649e-02      241.2449948 
 2.951645189e-02      241.1715822 
 2.945783259e-02      241.1056635 
 2.940243502e-02      241.0430854 
 2.934821469e-02      240.9815698 
 2.930378033e-02      240.9321223 
 2.925601046e-02      240.8815003 
 2.921214017e-02      240.8354686 
 2.914054319e-02      240.7600035 
 2.908144920e-02      240.6978339 
 2.902804618e-02      240.6423016 
 2.897655769e-02      240.5885794 
 2.892551020e-02      240.5349797 
 2.887659756e-02      240.4820942 
 2.882920297e-02      240.4301745 
 2.877397728e-02      240.3694019 
 2.872169552e-02      240.3102081 
 2.866007229e-02      240.2392535 
 2.859928896e-02      240.1682803 
 2.853819533e-02      240.0942122 
 2.847737810e-02      240.0198897 
 2.838697299e-02      239.9054572 
 2.829873712e-02      239.7895266 
 2.825090623e-02      239.7245663 
 2.820338368e-02      239.6591971 
 2.813094099e-02      239.5568077 
 2.805857983e-02      239.4519832 
 2.800496857e-02       239.372331 
 2.795164689e-02      239.2915166 
 2.788024023e-02      239.1795296 
 2.780902505e-02      239.0647163 
 2.773048406e-02      238.9353425 
 2.764908348e-02      238.8046516 
 2.757267937e-02      238.6837433 
 2.749416416e-02      238.5622588 
 2.742351203e-02      238.4596947 
 2.735105922e-02      238.3574374 
 2.727679261e-02      238.2558121 
 2.720180591e-02      238.1540946 
 2.712457478e-02      238.0520551 
 2.704662586e-02      237.9494768 
 2.696829918e-02       237.845301 
 2.688990150e-02      237.7401942 
 2.680182349e-02      237.6210703 
 2.671332833e-02      237.5005751 
 2.661792745e-02      237.3708123 
 2.652078822e-02      237.2395572 
 2.641965624e-02      237.1043722 
 2.631562384e-02       236.964314 
 2.618636859e-02      236.7873318 
 2.605379546e-02      236.6004463 
 2.592164483e-02      236.4051553 
 2.578762433e-02      236.2014782 
 2.569301371e-02      236.0547728 
 2.559895181e-02      235.9072144 
 2.550896908e-02      235.7647423 
 2.540051303e-02      235.5947986 
 2.528660484e-02      235.4146471 
 2.518608612e-02      235.2523256 
 2.509402184e-02      235.1029526 
 2.499928770e-02      234.9487189 
 2.489324331e-02      234.7720841 
 2.477832895e-02       234.577257 
 2.467146626e-02      234.3939299 
 2.458113101e-02      234.2358237 
 2.449567557e-02      234.0836924 
 2.438925998e-02      233.8913871 
 2.430245207e-02      233.7321781 
 2.421483374e-02      233.5673737 
 2.412951078e-02      233.4033569 
 2.404075025e-02      233.2273973 
 2.395216599e-02      233.0467598 
 2.380952517e-02      232.7448959 
 2.366237744e-02      232.4165367 
 2.352383705e-02       232.095683 
 2.338659514e-02      231.7727758 
 2.325154540e-02      231.4486471 
 2.311681582e-02      231.1216597 
 2.298402920e-02      230.7885967 
 2.285252648e-02      230.4466928 
 2.272214062e-02      230.0975443 
 2.259352731e-02      229.7422233 
 2.246562043e-02      229.3838925 
 2.232638616e-02      228.9867214 
 2.221071954e-02      228.6539643 
 2.208593965e-02      228.2866957 
 2.190057088e-02      227.7326718 
 2.171683078e-02      227.1673395 
 2.151122536e-02      226.5232487 
 2.130659844e-02      225.8695367 
 2.104577104e-02      225.0057274 
 2.079085650e-02      224.1118088 
 2.055879278e-02      223.2516378 
 2.033136547e-02      222.3753849 
 2.010682718e-02      221.4899002 
 1.988652728e-02      220.5927809 
 1.964095159e-02      219.5494923 
 1.940330098e-02      218.4855542 
 1.917399912e-02      217.4020693 
 1.895282312e-02      216.3031418 
 1.876029584e-02      215.2909698 
 1.857572452e-02      214.2655873 
 1.839945609e-02      213.2260911 
 1.823151594e-02      212.1726295 
 1.804093800e-02      210.8846678 
 1.786332346e-02      209.5793051 
 1.769897726e-02       208.258587 
 1.754823392e-02      206.9244502 
 1.740750234e-02      205.5407682 
 1.728132680e-02      204.1483871 
 1.716944796e-02      202.7503497 
 1.707211949e-02      201.3499204 
 1.699149677e-02      199.9883678 
 1.692438485e-02      198.6283242 
 1.687120493e-02      197.2722796 
 1.683146960e-02      195.9226379 
 1.680536308e-02      194.6216046 
 1.679156710e-02      193.3334906 
 1.678941501e-02      192.0589187 
 1.679874555e-02      190.8005254 
 1.682179478e-02      189.4538703 
 1.685742968e-02       188.131401 
 1.690518204e-02      186.8380487 
 1.696459481e-02      185.5746255 
 1.702877883e-02      184.4428026 
 1.710142852e-02      183.3394735 
 1.718241354e-02      182.2652078 
 1.727107589e-02      181.2231793 
 1.735575058e-02      180.3293183 
 1.744599422e-02      179.4612496 
 1.754149362e-02      178.6176623 
 1.764210505e-02      177.8000477 
 1.775447683e-02      176.9591047 
 1.787198551e-02       176.151214 
 1.799514279e-02      175.3735973 
 1.812276055e-02      174.6273906 
 1.827130916e-02      173.8299309 
 1.842454929e-02      173.0766008 
 1.858343068e-02       172.375291 
 1.874321891e-02      171.7175189 
 1.888867161e-02      171.1849356 
 1.903612456e-02      170.6964423 
 1.918370607e-02      170.2426965 
 1.933260834e-02      169.8324062 
 1.940691815e-02      169.6442478 
 1.948146164e-02      169.4675615 
 1.955605617e-02      169.3045878 
 1.963061211e-02       169.153669 
 1.970539411e-02       169.018364 
 1.977958671e-02      168.8958003 
 1.985394837e-02      168.7882679 
 1.992856465e-02      168.6957838 
 2.000718489e-02      168.6134041 
 2.008616019e-02      168.5472221 
 2.016533370e-02      168.4980321 
 2.024402730e-02      168.4639611 
 2.032389344e-02      168.4468921 
 2.040312651e-02      168.4446682 
 2.048218924e-02      168.4560897 
 2.056082051e-02      168.4784989 
 2.063927497e-02      168.5102627 
 2.071377870e-02      168.5497281 
 2.078023642e-02       168.590573 
 2.083274507e-02      168.6348613 
 2.085378278e-02      168.6569216 
 2.086990494e-02      168.6837426 
 2.087508009e-02      168.7088018 
 2.086733045e-02      168.7270998 
 2.085195426e-02      168.7295084 
 2.083091037e-02      168.6661407 
 2.080015868e-02      168.5027365 
 2.073670954e-02      167.7670232 
 2.030927292e-02      165.4959211 
 1.949275409e-02      161.9328035 
 1.756529144e-02      153.8434892 
 1.623281713e-02      144.3723629 
 1.568685731e-02      137.7821425 
 1.512985560e-02      132.3174379 
 1.467276508e-02      126.8755969 
 1.414679465e-02      121.0261168 
 1.369800726e-02       114.409529 
 1.334657056e-02      107.0424315 
 1.315905588e-02      102.9189578 
 1.303969720e-02      98.67203073 
 1.297373085e-02      94.10524031 
 1.298982828e-02      89.48359047 
 1.313638321e-02       84.4040652 
 1.340565538e-02      79.27998181 
 1.374822371e-02      74.15076438 
 1.416877215e-02      69.03531143 
 1.464702660e-02      64.38840757 
 1.512742368e-02      59.75442442 
 1.566915872e-02      55.61691886 
 1.621400574e-02      51.81581482 
 1.682399922e-02      48.07704173 
 1.755952547e-02      44.34062296 
 1.838074938e-02      40.10660992 
 1.902357583e-02      36.94504305 
 1.966921498e-02      34.31158807 
 2.025128992e-02      30.22484633 
K1 
 9.957527074e-02      250.2756695 
 9.943098104e-02      249.4578871 
 9.929605159e-02        248.45839 
 9.917611623e-02      247.7421748 
 9.904775070e-02      247.3287401 
 9.889602304e-02      246.9929623 
 9.873884787e-02      246.6799747 
 9.858462363e-02      246.3659886 
 9.843335301e-02      246.0509939 
 9.828741516e-02      245.7401008 
 9.814159319e-02       245.436115 
 9.798088257e-02      245.1799627 
 9.780405336e-02      244.9720834 
 9.760483111e-02      244.7486363 
 9.740708395e-02      244.5242611 
 9.721082128e-02      244.2989587 
 9.701561904e-02      244.0770926 
 9.679163844e-02      243.8670027 
 9.656478629e-02      243.6934832 
 9.633864479e-02      243.5205129 
 9.611337193e-02      243.3467197 
 9.588889255e-02      243.1729642 
 9.566386172e-02      243.0156337 
 9.543794524e-02      242.8760308 
 9.521244059e-02       242.737279 
 9.501829118e-02      242.6170137 
 9.482454665e-02      242.4962468 
 9.463299336e-02      242.3808174 
 9.444633709e-02      242.2799367 
 9.423748447e-02      242.1744973 
 9.402893328e-02      242.0685803 
 9.382068563e-02       241.962183 
 9.361379071e-02        241.85685 
 9.343642984e-02      241.7744118 
 9.326743377e-02      241.7038972 
 9.309936875e-02       241.634328 
 9.293142730e-02      241.5645013 
 9.276223628e-02      241.4938409 
 9.259639123e-02      241.4253451 
 9.239767326e-02      241.3500398 
 9.220934829e-02       241.282213 
 9.203137737e-02      241.2178171 
 9.185719193e-02      241.1545082 
 9.171481981e-02      241.1033598 
 9.156263780e-02      241.0503807 
 9.142308340e-02      241.0020555 
 9.119533940e-02      240.9228254 
 9.100773201e-02      240.8572461 
 9.083893055e-02       240.798038 
 9.067622343e-02      240.7407293 
 9.051498259e-02      240.6834812 