 ASGS TEMPLATE15:2024.1 %StormName% ADCIRCVersion:%ADCIRCVER%
 %ScenarioID%
 %NFOVER%    ! %NFOVER-Line%
 %NABOUT%    ! %NABOUT-Line%
 %NSCREEN%   ! %NSCREEN-Line%
 %IHOT%      ! %IHOT-Line%
 2           ! %ICS-Line%
 %IM%        ! %IM-Line%
 1           ! %NOLIBF-Line%
 2           ! %NOLIFA-Line%
 %NOLICA%    ! %NOLICA-Line%
 %NOLICAT%   ! %NOLICAT-Line%
 %NWP%       ! %NWP-Line%
 %NALIST%    ! %NALIST-Line%
 1           ! %NCOR-Line%
 1           ! %NTIP-Line%
 %NWS%       ! %NWS-Line%
 1           ! %NRAMP-Line%
 9.81        ! %G-Line%
 -3          ! %TAU0-Line%
 %DT%        ! %DTDP-Line%
 0.00        ! %STATIM-Line%
 0.00        ! %REFTIM-Line%
 %WTIMINC%   ! %WTIMINC-Line%
 %RNDAY%     ! %RNDAY-Line%
 7.0        ! %DRAMP-Line%
 %A00B00C00% ! %A00B00C00-Line%
 %H0% 12 12 %VELMIN%  ! %H0-Line%
 -71.0 27.0           ! %SLAM0-Line%
 %FFACTOR% 1.0  10.  0.33333 ! %FFACTOR-Line%
 %ESLM%                      ! %ESLM-Line%
 0.00010                     ! %CORI-Line%
 8 ! %NTIFCOMMENT% %NTIF-Line%
 Q1
 0.019256  0.000064958541129   0.695  %Q1NF% %Q1EQARG%
 O1
 0.100514  0.000067597744151   0.695  %O1NF% %O1EQARG%
 P1
 0.046843  0.000072522945975   0.706  %P1NF% %P1EQARG%
 K1
 0.141565  0.000072921158358   0.736  %K1NF% %K1EQARG%
 N2
 0.046398  0.000137879699487   0.693  %N2NF% %N2EQARG%
 M2
 0.242334  0.000140518902509   0.693  %M2NF% %M2EQARG%
 S2
 0.112841  0.000145444104333   0.693  %S2NF% %S2EQARG%
 K2
 0.030704  0.000145842317201   0.693  %K2NF% %K2EQARG%
 8 ! %NBFRCOMMENT% %NBFR-Line%
 M2
 0.000140518902509  %M2NF% %M2EQARG%
 S2
 0.000145444104333  %S2NF% %S2EQARG%
 N2
 0.000137879699487  %N2NF% %N2EQARG%
 K2
 0.000145842317201  %K2NF% %K2EQARG%
 K1
 0.000072921158358  %K1NF% %K1EQARG%
 O1
 0.000067597744151  %O1NF% %O1EQARG%
 P1
 0.000072522945975  %P1NF% %P1EQARG%
 Q1
 0.000064958541129  %Q1NF% %Q1EQARG%
M2     !BOUNTAG
0.462470459683803 -139.218413455427
0.455355593141513 -139.314289269679
0.447220806354392 -139.423602770014
0.421736231108447 -139.753927763387
0.392788263098001 -140.845908104552
0.372980475901467 -141.569636401186
0.365121734914686 -141.82233776217
0.359485359493737 -141.950119159523
0.34876738974478 -142.187664717355
0.339245584530005 -142.355056031122
0.329200347395634 -142.422808869343
0.318985816759795 -142.424978593732
0.308543188338297 -142.392642324664
0.298152175142108 -142.320150999334
0.288099185712076 -142.197760185552
0.279044569961329 -142.00266860102
0.270219457452615 -141.743716065237
0.252959348780205 -141.067793364345
0.239340340172909 -140.333466403743
0.225839283495618 -139.414599382619
0.207713399483364 -139.25644007418
0.19377868058869 -139.169194078612
0.183142196837865 -138.935048003631
0.172163453977551 -138.87599243634
0.163805282420532 -138.524432535128
0.155317014527448 -137.618603242277
0.145007038314362 -136.584398697967
0.134997140970707 -135.373230200552
0.125048456923678 -133.860882464696
0.114694420469169 -131.988988008705
0.104196646869683 -129.650209118011
0.0938909029223397 -126.668773674065
0.0838745302435235 -122.658490655682
0.0745004514114241 -117.213016989702
0.066681198466207 -110.238316967863
0.0606828044520591 -101.567516052777
0.0568332196922979 -91.3073778924621
0.0555380433483188 -74.7349124614081
0.0598739744473679 -58.0890508511904
0.0716840275624733 -41.2154157529024
0.0862962980243907 -30.7144723369296
0.101793879820243 -24.1917090686578
0.119687392144752 -19.2609438787019
0.13725272092111 -15.9169006903256
0.152577774167501 -13.7416477121138
0.167316039115069 -12.0395799613403
0.184390642318047 -10.407325739692
0.200545788049233 -9.12958651302517
0.216285875841429 -8.10579318595519
0.231276038182522 -7.33462622075283
0.245195528556154 -6.77388919980302
0.258644058204159 -6.34001238647415
0.271454981198629 -6.02697386108955
0.283792932435871 -5.82696338190118
0.296750679006253 -5.73193241974297
0.309054506884436 -5.76087438693688
0.320018868021744 -5.86063112588602
0.330399227084535 -6.0418987030992
0.33889107949534 -6.25895531879609
0.346940719194072 -6.53399270566733
0.354754190616892 -6.87822002159978
0.361997380264503 -7.31287558088495
0.369485553540898 -7.89496570945559
0.376859798498413 -8.43715932683095
0.383228697145139 -9.12878432294604
0.389945687462209 -9.84813810339294
0.393388358635772 -10.2476879233807
0.396861955755255 -10.6782626548149
0.40040276511594 -11.1392514342785
0.402162496267037 -11.3805647728654
0.403946001492972 -11.6312708702032
0.405865910578025 -11.9071885491049
0.407820261804991 -12.1921858979546
0.409736954811797 -12.4879890600505
0.411659530980448 -12.7980208458347
0.413593382653603 -13.1175721386274
0.415522477327925 -13.4446328338059
0.417346476398431 -13.7827486637566
0.419175925237406 -14.1378297477079
0.421015036416922 -14.5100046938204
0.422787161193712 -14.8865644039888
0.424483473907609 -15.2669300238631
0.426077794057176 -15.6519917761336
0.426924317395114 -15.8591583416198
0.427928436019494 -16.107484705425
0.42883257809984 -16.3297584184239
0.429643091368095 -16.5282930325179
0.431258287541546 -16.6763150086254
0.433623440937879 -16.8118832105497
0.437556162272709 -16.7187697252103
0.453357231794473 -14.6136067759909
0.466681232900296 -13.0117033561287
0.468771190119863 -13.0363457108536
0.470933780183512 -13.061613156475
0.475300854449266 -13.1561673944529
0.47887482451423 -13.2398324964641
0.482794941033045 -13.3363206661598
0.484593850155269 -13.4368211220764
0.486510409063477 -13.5429865255314
0.487708692009584 -13.7168103379188
0.48815253426974 -13.9644332669491
0.488309216541969 -14.1077346155609
0.487508856389717 -14.2156708538457
0.48671010256991 -14.3239792963081
0.485913190544538 -14.4326301847646
0.483622704200177 -14.5776222951203
0.480766611766334 -14.7379798854267
0.477914599997722 -14.9002373970315
0.473952156499154 -15.0659330448131
0.46819528091189 -15.2286993843906
0.462593941955997 -15.3910643979025
0.457290910093235 -15.5485520449662
0.441805288809602 -15.4504086174762
0.419696053982516 -15.1827456868513
0.396098784449037 -14.8639504176237
0.372889848142959 -14.5108385937143
0.356802474175799 -14.2389656923699
0.352358187721684 -13.8144869563958
0.35568399254994 -13.0322898835999
S2     !BOUNTAG
0.165212737285876 -111.571161343313
0.162592474092456 -111.762831921323
0.159582986144873 -112.033942021636
0.150079503454956 -113.317960386371
0.137827310812086 -116.508270629124
0.130056701540972 -118.763537317683
0.127171604864263 -119.605038364104
0.12524723387046 -120.01916744749
0.121600679169584 -120.777211053463
0.118366415527191 -121.295405033502
0.114960988512118 -121.618104601492
0.111654946904974 -121.689004160897
0.108227201602903 -121.696752593454
0.104734693672024 -121.664766008342
0.101284671700788 -121.590292567637
0.0983153344293926 -121.372497011461
0.0954837843636948 -121.099629329444
0.0899728632813436 -120.481417366823
0.0856365758372473 -119.766960991507
0.0812663364538134 -118.766951444217
0.0749922294662356 -118.045678622773
0.07026429353361 -118.056128678722
0.066968635942557 -118.183388233607
0.0637257822462994 -118.443803548133
0.0611695124361036 -118.281470905636
0.0586483795166949 -117.744631942402
0.0556515071963585 -117.145018608008
0.0527652832757481 -116.414406152691
0.0499290036714098 -115.506155989398
0.0469564881126585 -114.546528021512
0.0438569705720663 -113.392995490977
0.0407454597357175 -111.864442426006
0.0376104060939993 -109.821009870207
0.0345080301080902 -107.212876496394
0.0316411475465923 -104.005551396467
0.0290129327913496 -100.041716117772
0.0266265747792776 -95.1763302790608
0.0237061678998425 -86.2816769905254
0.0215606056077528 -74.4839771134499
0.0202997475927158 -56.6716879552081
0.0208728492032044 -40.3518142416464
0.0227243943707771 -27.2866638777475
0.0257223101770048 -15.982128705889
0.0291907974460417 -7.77571817833526
0.0325150350689348 -2.23655824105741
0.0359260030684743 2.08185134799812
0.0400734116804381 6.12736735532754
0.0441698144442519 9.25434345658403
0.0482697039871214 11.757744651617
0.0522041563806211 13.6834326637562
0.0558688120031454 15.1764143969029
0.0594051058459671 16.4065327190449
0.0627365938334602 17.4156935654371
0.0659081151748129 18.2403962001933
0.0691862193775332 18.9560866437704
0.0722642808359862 19.4969034422495
0.0749695825972382 19.8795982863877
0.0775216719575137 20.1256382638891
0.0795884579308827 20.2481230668678
0.0815483865679353 20.2587559290769
0.083424867450755 20.1846951949125
0.0851139812223586 19.9717135481012
0.0867346279070507 19.6178970885326
0.0884008525460345 19.4569951269539
0.0896805425096857 18.9531201760415
0.0910707281335489 18.4926926063628
0.0917949385518016 18.2233017924849
0.0925277481313463 17.9354208125437
0.0932653259640917 17.6296824940177
0.0936417016201928 17.4709720920083
0.0940213060812473 17.3085025563809
0.0944340436958234 17.1300263265572
0.0948605168699503 16.9440756925121
0.0952763291146916 16.7547784339595
0.0957077555103617 16.5553945476821
0.0961459255799422 16.3496002783818
0.0965850775614625 16.138466671857
0.0970202343166706 15.9169883788624
0.0974606633257654 15.6863706345087
0.0979151495194444 15.4415125062682
0.0983680102046853 15.1892129828061
0.0988168065323308 14.9300346448303
0.0992658375820358 14.6654572112448
0.099534412573124 14.5101449296162
0.0998816279107211 14.3122200313674
0.100408113174023 14.1346714162024
0.101105061929941 13.9765778294184
0.102274204163801 13.6080746373523
0.103922165596886 13.0638427624208
0.10610066666482 12.8646545015707
0.111518896756741 15.8204988449515
0.116138233436168 18.0410023409315
0.116741206515123 18.8514982181801
0.117389439540753 19.6811891281649
0.118601437336104 20.2900766219827
0.119574073789588 20.6009283628142
0.120634312542006 20.9415375001848
0.121027542230895 21.1467122578289
0.121447827942157 21.3636571967489
0.121790304333055 21.4813979838156
0.122050464569997 21.4950507709135
0.122182594271045 21.5069800212789
0.122118141023446 21.551507319875
0.122053751166813 21.596088856001
0.121989443105238 21.6407119945765
0.121620855306803 21.646879729605
0.121136445358952 21.6383385695373
0.120652083972223 21.6297296434345
0.119906459921632 21.642503175281
0.118729416976327 21.693976416692
0.117583508256615 21.7450823096331
0.116497996698382 21.7944258682686
0.112906864612004 22.0865680969465
0.107704887723952 22.5661168307846
0.10215935084465 23.1320596322748
0.0967127460999069 23.7523159775274
0.0929425581389406 24.2251517159286
0.092206536220533 24.8609969659872
0.0937514663089332 25.9631432497912
N2     !BOUNTAG
0.100760867039488 -153.09569029134
0.0990671795409017 -153.401318985573
0.097161547528436 -153.759665969221
0.0914356926967091 -154.931584573848
0.0847869521068592 -157.435208577374
0.0804560148410263 -159.135512248067
0.0787997141614459 -159.754789217204
0.077639296816409 -160.086375756384
0.0754287149598922 -160.702916211678
0.073445457478255 -161.153331694709
0.0713511319183591 -161.457935637707
0.0693060214402137 -161.544989022693
0.0672120411524223 -161.576069883034
0.0651087907869542 -161.567544723044
0.0630553884675397 -161.512952822896
0.061266680185521 -161.319199401165
0.0595472493341886 -161.074262144141
0.0561840672689594 -160.477567432065
0.0535066339282149 -159.754125347199
0.0508391930011612 -158.766097014579
0.0473679422876278 -157.959817505801
0.0446521283411744 -157.356062306061
0.0425748525769717 -156.656246601296
0.0405107850180899 -155.915521458638
0.0388417533728588 -154.88904062512
0.0371460508886745 -153.545939585801
0.0351282193282055 -151.951973058186
0.0331674551663651 -150.310533382073
0.031196621000229 -148.48182481796
0.0290824410356213 -146.396652663476
0.0269183258232209 -143.92168865351
0.024814480197723 -140.933812685083
0.0227560722642594 -137.241862618354
0.0207780047633977 -132.616422829162
0.0190537044198006 -127.075692407312
0.0176175851908067 -120.511275990181
0.0165018995657834 -112.809308721002
0.0155768570222258 -99.889136993915
0.0156727881662248 -85.3126587625641
0.0172478912277557 -68.067716811108
0.0197970609577245 -55.9980576931287
0.0227728429722197 -47.9244075102674
0.026358246785482 -41.6394994454235
0.0299567536100078 -37.3668012146779
0.0331578154796739 -34.6222352347294
0.036296526120466 -32.5821169591959
0.0400006427427605 -30.7698417850501
0.0435763993461849 -29.465421867782
0.0470970830707939 -28.5026955526538
0.0504689031335904 -27.8337024101835
0.0535952099587642 -27.3757836846702
0.0566088328336152 -27.0354844486324
0.0594428875906503 -26.7864115993447
0.0621607125595648 -26.6240684387005
0.0649836609520357 -26.5302706861681
0.0676535785796414 -26.5175815193225
0.0700268759982663 -26.5516458209443
0.0723100035184444 -26.6501275616422
0.0741895163181249 -26.7932162334476
0.0760197365364516 -26.998575402642
0.0778208581774087 -27.282658243558
0.0795119947095134 -27.6730450989655
0.0812724831965255 -28.2301340009447
0.0829279990495754 -28.753962327923
0.0843954445240278 -29.4467978511554
0.0858932517809068 -30.1748390349864
0.0866610021953206 -30.5792266317395
0.0874307328853702 -31.0149873120278
0.0882056215494261 -31.4822510744814
0.0885940357498426 -31.7284959981483
0.0889853352583049 -31.9855200279648
0.0894043438893695 -32.2679987388804
0.0898295665190013 -32.5581326572423
0.0902485059172777 -32.8607247240244
0.0906703836612491 -33.1789315091479
0.091091852772392 -33.507762362231
0.0915106647505643 -33.8449262235383
0.0919238364366091 -34.1930869809142
0.092332451356805 -34.55957076212
0.0927455628408741 -34.9471618079385
0.0931497057297127 -35.3425203230265
0.0935449397704581 -35.7435521036473
0.0939283436672751 -36.160545467798
0.0941391542773596 -36.3842278980926
0.094396015269988 -36.6516795635815
0.0946318848208367 -36.8903092388153
0.094848131535628 -37.1026667566009
0.095309888143355 -37.2060695522568
0.0959956340104895 -37.2535877925189
0.0971412968898061 -36.9076844975717
0.101907376861398 -33.2959130778104
0.106069196869548 -30.6012141020718
0.10661781321328 -30.3341278012841
0.107187885408328 -30.0606551459342
0.108592659763304 -30.0432358438472
0.109785439451334 -30.1190432496211
0.111114274009836 -30.2173684362198
0.111915661491239 -30.4180843981994
0.112770222961612 -30.6286084872395
0.113522213100816 -31.0044362207883
0.114176182363292 -31.557276916801
0.114533620134919 -31.8876357747315
0.11457430375109 -32.248348613777
0.114619532887778 -32.6088495699497
0.114669289609082 -32.9690080699659
0.114156786239333 -33.4528131983514
0.113437725512651 -33.9895707829861
0.112728813527047 -34.5330764064208
0.111699105638938 -35.04160695057
0.110134354542919 -35.4573500800012
0.108616597752249 -35.8736169884308
0.107184154733659 -36.2788301316594
0.103396296730782 -36.3351043860591
0.0980597530193562 -36.1871879813468
0.0923621251019286 -36.0103713167525
0.0867559784650556 -35.8136912722227
0.082868492511022 -35.6616562780511
0.0815771252193507 -35.3823127488907
0.081838485542463 -34.8382108557063
K2     !BOUNTAG
0.0425398463344622 -112.83950846973
0.0418738684105036 -112.887812566344
0.0411092694844581 -113.000593443046
0.0386957326089882 -113.844195612236
0.0356411957622614 -116.684340662267
0.0337071590185696 -118.716182326218
0.0329904621816721 -119.475090422682
0.0325058142706578 -119.84187991004
0.031582829425617 -120.508528830432
0.030753347457588 -120.947122857508
0.0298701349378153 -121.16389263244
0.0290042916707613 -121.099327326534
0.028104243896738 -120.969006215553
0.0271853640786266 -120.805317351768
0.0262756157235448 -120.61173272574
0.025489586330354 -120.296890361102
0.0247382639920751 -119.921248076842
0.0232686771949373 -119.048311811328
0.0221045939996515 -118.094235099486
0.0209159350214358 -116.885776474981
0.0192346335723509 -116.009069249097
0.0180350992820106 -115.683030834771
0.0172154439212698 -115.32906485965
0.0163994725032981 -114.971058520196
0.0157663694054154 -114.191862551711
0.0151509522156439 -113.000218236941
0.0144243499144289 -111.678778957301
0.0137252070054901 -110.357365540772
0.0130316977265706 -108.937108246272
0.0123035927643345 -107.480737375329
0.0115480946758011 -105.872151527779
0.0107901762471346 -103.990106695073
0.0100254500612045 -101.732128338255
0.00927135881608561 -98.9922676050112
0.00858697863647779 -95.785518684484
0.00796477510740551 -92.0327160882912
0.00739799106798353 -87.5981077677853
0.00669202682317921 -79.7706167955496
0.00615581164817487 -69.5582835372591
0.00580801534764305 -53.9580157897191
0.00591547203014889 -39.2838736087278
0.00636795641545992 -27.2361543772464
0.00713890534812624 -16.6435367054403
0.00806063283268835 -8.90587318961755
0.00895772478321886 -3.70790880891738
0.00988557709351903 0.315080829168525
0.0110233996587741 4.06820520553702
0.0121514661422741 6.94494655079299
0.0132815825219581 9.23803020425833
0.0143724022862149 10.9933214353525
0.0153898896317926 12.3541384497775
0.0163722883207354 13.4856674701081
0.0172958430589169 14.4253291244044
0.0181790552402852 15.201323272109
0.0190908380935397 15.8897680290271
0.0199483331783701 16.4284286329693
0.0207025747968475 16.832378694675
0.0214187152778714 17.1236691577172
0.0220010899285959 17.2980964811515
0.0225568733425702 17.3691859152524
0.0230943983571208 17.3573104469456
0.0235794276996019 17.2102959209862
0.0240533890001957 16.915115674934
0.0245241237053366 16.8410268573846
0.024894436492928 16.3867261893909
0.0252973290482815 15.9605070816321
0.0255101934767463 15.7066367408947
0.0257214509617617 15.4254106244313
0.0259342712606472 15.1195563080319
0.0260417220115162 14.9573693311216
0.0261500809494305 14.7870060977085
0.0262662428447013 14.5988740317507
0.0263833268945497 14.4048978564295
0.0264999904038402 14.2026538259745
0.0266176301463981 13.9877962821694
0.026735197974841 13.7635493132871
0.0268519907926702 13.531660555213
0.0269671171039514 13.2915616858041
0.0270815934419207 13.0377770373688
0.0271967101553538 12.7642840794439
0.0273081716097593 12.4834514477294
0.0274156535082498 12.2035155337897
0.027518027363734 11.9141595719441
0.0275746298023639 11.7598075560148
0.0276438792946836 11.576058514644
0.0277259963958184 11.4966341064741
0.0278202916883645 11.5147569684056
0.0280418998645213 11.5552705117241
0.0283774157774467 11.6149651900396
0.0288626491500406 12.311888406194
0.0305301177195034 18.1543325752195
0.0321138438916069 22.4509406291781
0.0326809146587108 23.421570898926
0.0332771973964803 24.3907810640199
0.0340200397180113 24.9487205454736
0.0345463859560218 25.1647249651931
0.035133111810012 25.3896006983678
0.0354856760850104 25.4485580681631
0.0358610200958424 25.5100441004103
0.0361710575253222 25.4050233454038
0.0364139393625248 25.1251739537063
0.0365458258701234 24.9643067991142
0.0365637765588095 24.8404050908934
0.0365819010196896 24.7166054817194
0.0366001938631701 24.592944103611
0.0364038371643918 24.4478911127069
0.0361259687716337 24.2926407940094
0.0358483959907128 24.1349999160099
0.0354928460521948 24.0677594982793
0.035015341183505 24.172901903662
0.0345505451963396 24.2780634891997
0.034110321651183 24.380333728568
0.0330176691569482 24.7914853922204
0.0314967720084833 25.4463914737404
0.0298777578166773 26.219208570745
0.0282903716154031 27.0659529325313
0.0271934235553722 27.7111745780447
0.0270181925696918 28.5417391529193
0.0275674577829485 29.9494966950946
K1     !BOUNTAG
0.0982366430281971 -115.718910726598
0.097666380604727 -115.953806128086
0.0970468818718469 -116.234628446345
0.0953644781213291 -117.201390616706
0.0932152961605552 -118.722126668914
0.0918035530456093 -119.691021681804
0.0912636810813501 -120.038076183294
0.0908802033130807 -120.244506996715
0.090148107803774 -120.632207003061
0.0894965660188525 -120.951112428016
0.0888860236956763 -121.2344989732
0.0883679386467845 -121.473704889754
0.0878663880744122 -121.704201431676
0.0873825156773049 -121.925589659695
0.0869152867700756 -122.13786927995
0.0864135895017117 -122.358295203359
0.0859182796544134 -122.576937510362
0.0848959260147899 -123.030562675115
0.0839875065915553 -123.447359788051
0.0831148591058994 -123.82615866649
0.0822389297120724 -123.986936906917
0.0809932670098771 -124.444070756197
0.079952696336954 -124.992598615793
0.0790519593552198 -125.515572578437
0.0782322777129756 -125.922615174353
0.077515872677521 -126.356435922825
0.0767319944775836 -126.917922705661
0.0759178138937496 -127.533179186968
0.0750539116146428 -128.166638515863
0.0740969039501261 -128.863816981306
0.0731548882207347 -129.567488114055
0.0722048418786654 -130.274310051543
0.0712798226987261 -130.979940199954
0.0703609112012243 -131.711722997893
0.0694465598191269 -132.446899510772
0.0685454128237422 -133.187093092318
0.0676713693939725 -133.948604979094
0.0664230468979519 -135.117445088083
0.065103554969442 -136.450329483162
0.0635652343631301 -138.25479103873
0.0622479008043655 -139.997219383137
0.0609862800001762 -141.795379377314
0.059603809627706 -143.903400390781
0.0582846818155841 -146.086639657705
0.0571455334300729 -148.142344915688
0.0560674647560734 -150.242364272991
0.0548796382057724 -152.871785057273
0.0538410877720367 -155.574451608437
0.0529540616169188 -158.426316176911
0.0522663901105459 -161.312977305264
0.051816558156797 -164.12976937736
0.0515925794717858 -166.922367313959
0.0515783237741268 -169.610835401875
0.0517561960659432 -172.212575207007
0.0521301393110728 -174.977927431512
0.0526788621762827 -177.651070788349
0.0532850509701583 -179.99398992658
0.0539716817466302 177.752961185323
0.0546252678833973 175.872973022151
0.0552966116398897 174.098211796103
0.0560438010062705 172.334305926885
0.0568114081093448 170.720720152408
0.0577004842176364 169.085033730209
0.0585865833757524 167.516376811279
0.0594054364869824 166.39619961138
0.0601879553294391 165.418003793329
0.0605757913456401 165.015598940944
0.060977980517386 164.661574063037
0.0613872222416094 164.365927633363
0.0616014106710511 164.239744346315
0.0618237852360066 164.127276734492
0.0620654920126661 164.016470645063
0.0623124030512529 163.910339050929
0.0625744028355485 163.824414601522
0.0628589027445357 163.748587833763
0.0631588821545324 163.6775291768
0.0634700112316269 163.607096560505
0.0637903523482756 163.531061527711
0.0641270196583493 163.458780417119
0.0644727683190551 163.370218786679
0.0648190224493882 163.26163398409
0.065173664499427 163.132337952883
0.0655024481262695 162.958295463343
0.0656921849473916 162.828112753994
0.0659318789072458 162.638583822563
0.0661087522487676 162.33930579238
0.0662287808985533 161.935716629424
0.0660905951337347 161.51530810382
0.0657680883722999 161.019788194081
0.0641746152392225 160.031143745956
0.052071736662568 153.991417764703
0.042738004041607 146.418098521629
0.0387608856337024 139.028641774354
0.0354719107390433 129.802188849311
0.0329790317976549 121.592212337355
0.0316403848349859 116.635135090675
0.0303970995425177 110.420865101256
0.0294303898575934 104.217236364851
0.0288038375137595 97.2446230641814
0.027960400238891 90.0514770227781
0.0268837059883589 82.2656751898093
0.0264120632173257 77.341649899911
0.0254754223237633 71.853767677423
0.0247887810771027 66.0043471738263
0.0243734961534434 59.8902346530242
0.0236822514543765 54.9704634030705
0.0229465016841311 50.282068338707
0.0223739321668748 45.3193209032367
0.022850114431202 42.1933054265542
0.0249348124922377 42.8112297488673
0.0269668952220924 43.3210103780684
0.0288937287978626 43.7377871975374
0.029969373853351 38.87009031724
0.0311087632640148 31.1838307015273
0.0328926151464578 23.7069611272201
0.0351350081494355 17.1965307759116
0.0369280386511108 13.1799936101463
0.0384981486915669 7.75789386315028
0.0414497381673062 -1.41158464536432
O1     !BOUNTAG
0.0818668379605876 -126.718313782896
0.0814296498823028 -126.981057174326
0.0809601456415371 -127.282907941926
0.079727558744483 -128.226189359146
0.07823411637423 -129.670652722665
0.0772305806112119 -130.559724864812
0.0768369921920414 -130.868355915156
0.076533981788384 -131.045089679802
0.0759505924512125 -131.374793440187
0.0754153607950788 -131.637951351221
0.0748739784206275 -131.846955235142
0.0743929559543181 -132.010126955616
0.073911293791085 -132.155615698878
0.0734321201877468 -132.284630384615
0.0729616231112858 -132.3992072626
0.0725021449563885 -132.51388854684
0.072047719062957 -132.626398043457
0.071149762262358 -132.856040978823
0.0704060224315335 -133.062704239097
0.06970116378486 -133.225200155817
0.0688654862470234 -133.289103513527
0.0680476853542435 -133.668538321187
0.0675085581611392 -134.113709615811
0.0670242413285704 -134.572094620731
0.0665312834721216 -134.922114691855
0.0660568926514634 -135.232398001391
0.0655101095567849 -135.632843355757
0.0649422332995163 -136.031513051927
0.0643623543497934 -136.427487237941
0.0637648153126197 -136.855598195956
0.0631603296252963 -137.286719001838
0.0625451355036998 -137.707263865262
0.0619322011404618 -138.113944943669
0.0613361476995064 -138.512856905447
0.0607529502998783 -138.908333542694
0.0601799563895184 -139.301551742359
0.059623820750068 -139.705143669265
0.0588162044179201 -140.310560117306
0.0579398125497097 -141.013647393908
0.0568584232521771 -141.983569770719
0.0558874860537155 -142.937930572817
0.0549388394356555 -143.940285192936
0.0538827250919447 -145.148591577723
0.0528603975662485 -146.4161220042
0.0519637410164122 -147.618101650349
0.0510977245440278 -148.86756220158
0.0501116575407408 -150.435931970833
0.0491887117793646 -152.081440680937
0.0483223432880549 -153.838739368174
0.0475462456450833 -155.643546998322
0.0468835558717635 -157.449231094159
0.0463052566682974 -159.295605524842
0.045819804872479 -161.121924446189
0.0454139196457483 -162.973505607799
0.045066305680395 -164.991510757064
0.0448235358824413 -166.989725486987
0.0446900853294346 -168.780911981086
0.0446351793883699 -170.525763238129
0.044662585968404 -172.014817887187
0.0447458229555816 -173.435550483751
0.0449057329038472 -174.865742578462
0.0451376469189932 -176.210739590341
0.045496903051975 -177.606206717683
0.0459268233305451 -178.972796325335
0.0464035341619087 -179.980477321014
0.0469598650310858 179.05586550689
0.0472749135799761 178.60617804242
0.0476174839652247 178.182285445407
0.0479920721056319 177.780520951635
0.0481923938208896 177.582228881432
0.0484037742761035 177.381856137933
0.0486356876475524 177.167511577647
0.0488733517112001 176.952729563309
0.0491255755893346 176.734802277141
0.0493854752643062 176.505156682826
0.0496488435837435 176.266950591465
0.0499144350358283 176.020007686028
0.0501875375892158 175.754169822971
0.0504497189205749 175.473947572331
0.0507099048894498 175.16850980583
0.0509559520840542 174.843644511553
0.0511811874634248 174.498922783334
0.0513634667003219 174.133403207213
0.051451267855166 173.90565922707
0.0515473618456252 173.603818643292
0.051537455800837 173.197384142627
0.0514295018787611 172.688654225449
0.0510504588608097 172.294417002855
0.0504420731725334 171.912033138871
0.0486501900016022 171.720566623742
0.0371145986965132 174.267844818856
0.0276535542023359 177.875557453647
0.0221420969256447 177.598466669135
0.0164402540205955 177.116200727479
0.0118520465014681 179.634437057591
0.00933739271553225 -176.10686000574
0.00655753278142399 -167.085037545056
0.00440080652430637 -147.849691786221
0.0033929446925418 -105.178343369043
0.00504172489261561 -69.321342944608
0.007964918450128 -57.4443021277612
0.00983001174716802 -54.066085156041
0.0120337102063683 -53.5339655948072
0.0142384830379916 -53.1665422535105
0.0164434160109497 -52.8976860805601
0.0183545140992408 -53.6780115696178
0.0201590852995657 -54.6615548955378
0.0219684485713003 -55.4832097953887
0.0236277795351595 -54.5880332083123
0.0249852997847473 -51.1068709636402
0.0263864675012771 -48.072315758156
0.0277753624351244 -45.4865816885791
0.0298121379456647 -45.8264847833879
0.032343705082293 -47.4667066500947
0.0350718297386382 -48.9554588705358
0.0377764132868729 -50.2098207582033
0.0396615865890732 -50.9790728294191
0.0423710783919609 -53.4023285896662
0.0476091026615545 -57.9370244816183
P1     !BOUNTAG
0.0318429622268985 -115.812264017943
0.0317053490251347 -116.090519343096
0.0315520749324739 -116.412790999073
0.0311026566491152 -117.44451225482
0.0305145930082552 -119.055032176358
0.0301110301271446 -120.052240827578
0.0299506191272558 -120.400158531848
0.0298311054777283 -120.59706841555
0.029602370673684 -120.96535890697
0.0293969554962017 -121.262601949806
0.0292004699869488 -121.508073039268
0.0290328057522184 -121.717369035124
0.0288717007366556 -121.908342761261
0.028715662487159 -122.084031334921
0.0285631722111111 -122.250282808771
0.02840593799641 -122.427083750922
0.028248036312035 -122.600917470366
0.0279327092515443 -122.960574176844
0.0276580090414307 -123.299290309521
0.027401611619077 -123.616958234888
0.0271506266114205 -123.766591374444
0.0268143896558753 -124.273659579762
0.0265482681241189 -124.905078843127
0.0263188272688952 -125.574511865378
0.0260961961349388 -126.11094319964
0.0258847933786181 -126.641524665832
0.0256403352855324 -127.299365414109
0.0253857759073163 -127.943415609636
0.0251248739427186 -128.586294641579
0.0248549091348095 -129.279906294574
0.0245855276198585 -129.98450789445
0.0243139603816081 -130.682605515998
0.0240444606378268 -131.384789302227
0.0237766056442446 -132.100399297986
0.0235079278419094 -132.814639350054
0.0232381001356867 -133.5323528941
0.0229716490817285 -134.262259900853
0.022576617715175 -135.371782644482
0.0221341532002201 -136.641387818749
0.0215812340759944 -138.364803169922
0.0210853641343 -140.031810546778
0.0206047612427429 -141.747579919917
0.020082171450657 -143.780358220684
0.0195927353959215 -145.887539712061
0.0191816103102926 -147.86210292865
0.0188024858714705 -149.896926217857
0.0183932505658583 -152.42100480601
0.0180382537807073 -155.015197084627
0.0177319163537252 -157.734559780076
0.0174853402678108 -160.474340768536
0.0173055625698574 -163.151469487206
0.0171847764950502 -165.799239744573
0.0171234588100116 -168.331549904991
0.0171140893363336 -170.793384149107
0.0171570754083362 -173.377665461069
0.0172508847602622 -175.847330722216
0.0173781704147341 -177.982098639473
0.0175413895547275 -179.999195531614
0.0177173080254806 178.339950573262