 ASGS %StormName%
 %EnsembleID%
1 20.0 1 20 100.0     ! NFOVER - NONFATAL ERROR OVERRIDE
0                     ! NABOUT - ABREVIATED OUTPUT
%NSCREEN%   ! output frequency (in time steps) to STDOUT or adcirc.log
%IHOT%                ! IHOT - HOT START
2                     ! ICS - COORDINATE SYSTEM OPTION PARAMETER
111112                ! IM - MODEL RUN TYPE: 0,10,20,30 = 2DDI
1                     ! NOLIBF - NONLINEAR BOTTOM FRICTION
2                     ! NOLIFA - FINITE AMPLITUDE TERMS
1                     ! NOLICA - CONVECTIVE ACCELERATION TERMS
1                     ! NOLICAT - TIME DERIVATIVE OF CONV ACC TERMS
5                     ! NWP - Number of nodal attributes
sea_surface_height_above_geoid
mannings_n_at_sea_floor
primitive_weighting_in_continuity_equation
surface_canopy_coefficient
surface_directional_effective_roughness_length
1                     ! NCOR - VARIABLE CORIOLIS IN SPACE 
1                     ! NTIP - TIDAL POTENTIAL
%NWS%                 ! NWS - WIND STRESS AND BAROMETRIC PRESSURE
1                     ! NRAMP - RAMP FUNCTION OPTION
9.80665               ! G - ACCELERATION DUE TO GRAVITY - DETERMINES UNITS
-3                    ! TAU0 - WEIGHTING FACTOR IN GWCE
%DT%                  ! DT - TIME STEP (IN SECONDS)
0.00000               ! STATIM - STARTING SIMULATION TIME IN DAYS
0.00000               ! REFTIME - (DAYS) FOR NODAL FACTORS AND EQ ARGS
%WTIMINC%             ! wtiminc
%RNDAY%               ! RNDAY - TOTAL LENGTH OF SIMULATION (IN DAYS)
15.00000              ! DRAMP - DURATION OF RAMP FUNCTION (IN DAYS)
0 1 0                 ! TIME WEIGHTING FACTORS FOR THE GWCE EQUATION
0.100000 5 5 0.050000 ! H0, NODEDRYMIN, NODEWETMIN, VELMIN - DRYING/WETTING
285 24                ! SLAM0, SFEA0 - CPP COORDINATE PROJECTION CENTER
0.002500              ! FFACTOR - 2DDI BOTTOM FRICTION COEFFICIENT
10.0                  ! ESLM - SPATIALLY CONSTANT HORIZONTAL EDDY VISCOSITY
0.0                   ! CORI - CONSTANT CORIOLIS COEFFICIENT
8                     ! NTIF - NUMBER OF TIDAL POTENTIAL CONSTITUENTS
K1   
0.14156500 0.000072921158358 0.736 %K1NF% %K1EQARG% 
K2
0.03070400 0.000145842317201 0.693 %K2NF% %K2EQARG% 
M2 
0.24233400 0.000140518902509 0.693 %M2NF% %M2EQARG%
N2 
0.04639800 0.000137879699487 0.693 %N2NF% %N2EQARG%
O1 
0.10051400 0.000067597744151 0.695 %O1NF% %O1EQARG%
P1 
0.04683400 0.000072522945975 0.706 %P1NF% %P1EQARG%
Q1 
0.01925600 0.000064958541129 0.695 %Q1NF% %Q1EQARG%
S2 
0.11284100 0.000145444104333 0.693 %S2NF% %S2EQARG%
8 ! NBFR - NUMBER OF PERIODIC FORCING FREQS ON ELEVATION SPECIFIED BOUNDARIES
K1   
0.000072921158358 %K1NF% %K1EQARG% 
K2  
0.000145842317201 %K2NF% %K2EQARG% 
M2 
0.000140518902509 %M2NF% %M2EQARG%
N2  
0.000137879699487 %N2NF% %N2EQARG%
O1 
0.000067597744151 %O1NF% %O1EQARG%
P1 
0.000072522945975 %P1NF% %P1EQARG%
Q1 
0.000064958541129 %Q1NF% %Q1EQARG%
S2 
0.000145444104333 %S2NF% %S2EQARG%
K1
0.095357 236.608                         ! EMO, EFA
0.095357 236.608                         ! EMO, EFA
0.095357 236.608                         ! EMO, EFA
0.095357 236.608                         ! EMO, EFA
0.095357 236.608                         ! EMO, EFA
0.095357 236.608                         ! EMO, EFA
0.095357 236.608                         ! EMO, EFA
0.095357 236.608                         ! EMO, EFA
0.095357 236.608                         ! EMO, EFA
0.095356 236.608                         ! EMO, EFA
0.095356 236.608                         ! EMO, EFA
0.095356 236.608                         ! EMO, EFA
0.095356 236.608                         ! EMO, EFA
0.095356 236.608                         ! EMO, EFA
0.095356 236.608                         ! EMO, EFA
0.095356 236.608                         ! EMO, EFA
0.095356 236.608                         ! EMO, EFA
0.095221 236.581                         ! EMO, EFA
0.094969 236.531                         ! EMO, EFA
0.094717 236.480                         ! EMO, EFA
0.094466 236.429                         ! EMO, EFA
0.094214 236.379                         ! EMO, EFA
0.093962 236.327                         ! EMO, EFA
0.093711 236.276                         ! EMO, EFA
0.093459 236.224                         ! EMO, EFA
0.093242 236.179                         ! EMO, EFA
0.093026 236.134                         ! EMO, EFA
0.092809 236.088                         ! EMO, EFA
0.092592 236.043                         ! EMO, EFA
0.092346 235.991                         ! EMO, EFA
0.092100 235.939                         ! EMO, EFA
0.091854 235.886                         ! EMO, EFA
0.091608 235.833                         ! EMO, EFA
0.091387 235.789                         ! EMO, EFA
0.091166 235.750                         ! EMO, EFA
0.090945 235.710                         ! EMO, EFA
0.090724 235.670                         ! EMO, EFA
0.090501 235.630                         ! EMO, EFA
0.090279 235.589                         ! EMO, EFA
0.089984 235.535                         ! EMO, EFA
0.089689 235.481                         ! EMO, EFA
0.089410 235.429                         ! EMO, EFA
0.089137 235.378                         ! EMO, EFA
0.088901 235.333                         ! EMO, EFA
0.088619 235.280                         ! EMO, EFA
0.088353 235.229                         ! EMO, EFA
0.087920 235.146                         ! EMO, EFA
0.087598 235.077                         ! EMO, EFA
0.087425 235.017                         ! EMO, EFA
0.087257 234.959                         ! EMO, EFA
0.087090 234.900                         ! EMO, EFA
0.086914 234.839                         ! EMO, EFA
0.086739 234.777                         ! EMO, EFA
0.086534 234.705                         ! EMO, EFA
0.086330 234.633                         ! EMO, EFA
0.086083 234.544                         ! EMO, EFA
0.085847 234.457                         ! EMO, EFA
0.085657 234.368                         ! EMO, EFA
0.085468 234.279                         ! EMO, EFA
0.085175 234.141                         ! EMO, EFA
0.084883 234.001                         ! EMO, EFA
0.084721 233.924                         ! EMO, EFA
0.084564 233.844                         ! EMO, EFA
0.084342 233.708                         ! EMO, EFA
0.084120 233.571                         ! EMO, EFA
0.083956 233.470                         ! EMO, EFA
0.083793 233.368                         ! EMO, EFA
0.083571 233.229                         ! EMO, EFA
0.083341 233.092                         ! EMO, EFA
0.083078 232.941                         ! EMO, EFA
0.082816 232.790                         ! EMO, EFA
0.082576 232.650                         ! EMO, EFA
0.082336 232.509                         ! EMO, EFA
0.082118 232.391                         ! EMO, EFA
0.081893 232.274                         ! EMO, EFA
0.081669 232.156                         ! EMO, EFA
0.081445 232.038                         ! EMO, EFA
0.081222 231.920                         ! EMO, EFA
0.080999 231.800                         ! EMO, EFA
0.080763 231.682                         ! EMO, EFA
0.080524 231.564                         ! EMO, EFA
0.080258 231.432                         ! EMO, EFA
0.079992 231.299                         ! EMO, EFA
0.079713 231.158                         ! EMO, EFA
0.079426 231.010                         ! EMO, EFA
0.079122 230.849                         ! EMO, EFA
0.078818 230.687                         ! EMO, EFA
0.078448 230.488                         ! EMO, EFA
0.078079 230.287                         ! EMO, EFA
0.077695 230.075                         ! EMO, EFA
0.077310 229.860                         ! EMO, EFA
0.077042 229.708                         ! EMO, EFA
0.076773 229.555                         ! EMO, EFA
0.076517 229.407                         ! EMO, EFA
0.076214 229.215                         ! EMO, EFA
0.075895 229.008                         ! EMO, EFA
0.075604 228.817                         ! EMO, EFA
0.075338 228.640                         ! EMO, EFA
0.075063 228.455                         ! EMO, EFA
0.074761 228.260                         ! EMO, EFA
0.074437 228.054                         ! EMO, EFA
0.074133 227.859                         ! EMO, EFA
0.073873 227.690                         ! EMO, EFA
0.073624 227.526                         ! EMO, EFA
0.073309 227.309                         ! EMO, EFA
0.073050 227.127                         ! EMO, EFA
0.072788 226.939                         ! EMO, EFA
0.072531 226.754                         ! EMO, EFA
0.072261 226.557                         ! EMO, EFA
0.072011 226.362                         ! EMO, EFA
0.071627 226.046                         ! EMO, EFA
0.071227 225.710                         ! EMO, EFA
0.070838 225.382                         ! EMO, EFA
0.070425 225.035                         ! EMO, EFA
0.070016 224.684                         ! EMO, EFA
0.069611 224.326                         ! EMO, EFA
0.069228 223.950                         ! EMO, EFA
0.068847 223.570                         ! EMO, EFA
0.068470 223.186                         ! EMO, EFA
0.068089 222.810                         ! EMO, EFA
0.067710 222.431                         ! EMO, EFA
0.067298 222.010                         ! EMO, EFA
0.066977 221.670                         ! EMO, EFA
0.066628 221.291                         ! EMO, EFA
0.066371 221.008                         ! EMO, EFA
0.066110 220.720                         ! EMO, EFA
0.065827 220.419                         ! EMO, EFA
0.065546 220.115                         ! EMO, EFA
0.065095 219.619                         ! EMO, EFA
0.064722 219.196                         ! EMO, EFA
0.064383 218.800                         ! EMO, EFA
0.063985 218.327                         ! EMO, EFA
0.063560 217.828                         ! EMO, EFA
0.063201 217.405                         ! EMO, EFA
0.062770 216.883                         ! EMO, EFA
0.062377 216.350                         ! EMO, EFA
0.061979 215.793                         ! EMO, EFA
0.061591 215.270                         ! EMO, EFA
0.061128 214.685                         ! EMO, EFA
0.060626 214.026                         ! EMO, EFA
0.060243 213.444                         ! EMO, EFA
0.059916 212.935                         ! EMO, EFA
0.059572 212.411                         ! EMO, EFA
0.059209 211.871                         ! EMO, EFA
0.058852 211.324                         ! EMO, EFA
0.058514 210.783                         ! EMO, EFA
0.058187 210.241                         ! EMO, EFA
0.057865 209.693                         ! EMO, EFA
0.057570 209.155                         ! EMO, EFA
0.057307 208.663                         ! EMO, EFA
0.057048 208.166                         ! EMO, EFA
0.056781 207.647                         ! EMO, EFA
0.056518 207.124                         ! EMO, EFA
0.056260 206.596                         ! EMO, EFA
0.056025 206.107                         ! EMO, EFA
0.055794 205.615                         ! EMO, EFA
0.055568 205.120                         ! EMO, EFA
0.055286 204.493                         ! EMO, EFA
0.055010 203.858                         ! EMO, EFA
0.054749 203.224                         ! EMO, EFA
0.054509 202.592                         ! EMO, EFA
0.054275 201.955                         ! EMO, EFA
0.054067 201.293                         ! EMO, EFA
0.053870 200.622                         ! EMO, EFA
0.053673 199.965                         ! EMO, EFA
0.053466 199.315                         ! EMO, EFA
0.053267 198.660                         ! EMO, EFA
0.053095 198.011                         ! EMO, EFA
0.052933 197.359                         ! EMO, EFA
0.052769 196.690                         ! EMO, EFA
0.052604 196.000                         ! EMO, EFA
0.052446 195.306                         ! EMO, EFA
0.052319 194.656                         ! EMO, EFA
0.052203 194.022                         ! EMO, EFA
0.052103 193.388                         ! EMO, EFA
0.052020 192.755                         ! EMO, EFA
0.051944 192.120                         ! EMO, EFA
0.051861 191.488                         ! EMO, EFA
0.051784 190.854                         ! EMO, EFA
0.051722 190.220                         ! EMO, EFA
0.051679 189.588                         ! EMO, EFA
0.051642 188.974                         ! EMO, EFA
0.051601 188.393                         ! EMO, EFA
0.051564 187.815                         ! EMO, EFA
0.051549 187.227                         ! EMO, EFA
0.051582 186.613                         ! EMO, EFA
0.051622 185.999                         ! EMO, EFA
0.051633 185.410                         ! EMO, EFA
0.051633 184.833                         ! EMO, EFA
0.051643 184.211                         ! EMO, EFA
0.051682 183.625                         ! EMO, EFA
0.051725 183.039                         ! EMO, EFA
0.051796 182.452                         ! EMO, EFA
0.051878 181.866                         ! EMO, EFA
0.051961 181.281                         ! EMO, EFA
0.052043 180.695                         ! EMO, EFA
0.052130 180.111                         ! EMO, EFA
0.052203 179.610                         ! EMO, EFA
0.052280 179.110                         ! EMO, EFA
0.052373 178.625                         ! EMO, EFA
0.052486 178.162                         ! EMO, EFA
0.052603 177.701                         ! EMO, EFA
0.052716 177.209                         ! EMO, EFA
0.052831 176.710                         ! EMO, EFA
0.052948 176.226                         ! EMO, EFA
0.053048 175.851                         ! EMO, EFA
0.053150 175.477                         ! EMO, EFA
0.053261 175.103                         ! EMO, EFA
0.053394 174.728                         ! EMO, EFA
0.053529 174.355                         ! EMO, EFA
0.053654 173.983                         ! EMO, EFA
0.053755 173.609                         ! EMO, EFA
0.053858 173.237                         ! EMO, EFA
0.053997 172.854                         ! EMO, EFA
0.054176 172.491                         ! EMO, EFA
0.054357 172.130                         ! EMO, EFA
0.054513 171.791                         ! EMO, EFA
0.054657 171.465                         ! EMO, EFA
0.054803 171.140                         ! EMO, EFA
0.054947 170.813                         ! EMO, EFA
0.055092 170.487                         ! EMO, EFA
0.055265 170.130                         ! EMO, EFA
0.055467 169.802                         ! EMO, EFA
0.055671 169.477                         ! EMO, EFA
0.055873 169.150                         ! EMO, EFA
0.056076 168.825                         ! EMO, EFA
0.056267 168.513                         ! EMO, EFA
0.056429 168.227                         ! EMO, EFA
0.056593 167.942                         ! EMO, EFA
0.056767 167.687                         ! EMO, EFA
0.056947 167.434                         ! EMO, EFA
0.057128 167.185                         ! EMO, EFA
0.057332 166.938                         ! EMO, EFA
0.057524 166.707                         ! EMO, EFA
0.057701 166.489                         ! EMO, EFA
0.057900 166.239                         ! EMO, EFA
0.058111 166.000                         ! EMO, EFA
0.058291 165.818                         ! EMO, EFA
0.058472 165.638                         ! EMO, EFA
0.058624 165.486                         ! EMO, EFA
0.058768 165.341                         ! EMO, EFA
0.058912 165.198                         ! EMO, EFA
0.059020 165.088                         ! EMO, EFA
0.059128 164.979                         ! EMO, EFA
0.059255 164.864                         ! EMO, EFA
0.059408 164.748                         ! EMO, EFA
0.059562 164.633                         ! EMO, EFA
0.059688 164.573                         ! EMO, EFA
0.059803 164.534                         ! EMO, EFA
0.059922 164.491                         ! EMO, EFA
0.060076 164.414                         ! EMO, EFA
0.060229 164.337                         ! EMO, EFA
0.060366 164.258                         ! EMO, EFA
0.060485 164.179                         ! EMO, EFA
0.060603 164.100                         ! EMO, EFA
0.060721 164.020                         ! EMO, EFA
0.060785 163.978                         ! EMO, EFA
0.060862 163.927                         ! EMO, EFA
0.060962 163.653                         ! EMO, EFA
0.061092 163.144                         ! EMO, EFA
0.061195 162.753                         ! EMO, EFA
0.061296 162.381                         ! EMO, EFA
0.060990 161.669                         ! EMO, EFA
0.055722 156.784                         ! EMO, EFA
0.051673 151.948                         ! EMO, EFA
0.048263 146.710                         ! EMO, EFA
0.045223 140.513                         ! EMO, EFA
0.043897 135.420                         ! EMO, EFA
0.043669 132.815                         ! EMO, EFA
0.043517 129.765                         ! EMO, EFA
0.043487 126.799                         ! EMO, EFA
0.043583 123.646                         ! EMO, EFA
0.043463 119.805                         ! EMO, EFA
0.043169 115.083                         ! EMO, EFA
0.043135 112.248                         ! EMO, EFA
0.043206 109.417                         ! EMO, EFA
0.043381 106.600                         ! EMO, EFA
0.043661 103.813                         ! EMO, EFA
0.043869 100.460                         ! EMO, EFA
0.044158 96.852                          ! EMO, EFA
0.044619 93.306                          ! EMO, EFA
0.045247 89.845                          ! EMO, EFA
0.045988 86.669                          ! EMO, EFA
0.046842 83.681                          ! EMO, EFA
0.047763 80.957                          ! EMO, EFA
0.048153 79.898                          ! EMO, EFA
0.048143 79.879                          ! EMO, EFA
0.048128 79.851                          ! EMO, EFA
0.048109 79.812                          ! EMO, EFA
0.048090 79.774                          ! EMO, EFA
0.048068 79.728                          ! EMO, EFA
0.048019 79.625                          ! EMO, EFA
K2                                       ! EALPHA - FORCING CONSTITUENT NAME AGAIN
0.045278 236.150                         ! EMO, EFA
0.045278 236.150                         ! EMO, EFA
0.045277 236.150                         ! EMO, EFA
0.045277 236.150                         ! EMO, EFA
0.045277 236.150                         ! EMO, EFA
0.045277 236.150                         ! EMO, EFA
0.045277 236.150                         ! EMO, EFA
0.045276 236.150                         ! EMO, EFA
0.045276 236.150                         ! EMO, EFA
0.045276 236.150                         ! EMO, EFA
0.045276 236.150                         ! EMO, EFA
0.045276 236.150                         ! EMO, EFA
0.045275 236.150                         ! EMO, EFA
0.045275 236.150                         ! EMO, EFA
0.045275 236.150                         ! EMO, EFA
0.045275 236.150                         ! EMO, EFA
0.045275 236.150                         ! EMO, EFA
0.045044 236.109                         ! EMO, EFA
0.044612 236.032                         ! EMO, EFA
0.044181 235.953                         ! EMO, EFA
0.043750 235.872                         ! EMO, EFA
0.043318 235.790                         ! EMO, EFA
0.042887 235.707                         ! EMO, EFA
0.042456 235.621                         ! EMO, EFA
0.042025 235.534                         ! EMO, EFA
0.041653 235.457                         ! EMO, EFA
0.041282 235.379                         ! EMO, EFA
0.040910 235.300                         ! EMO, EFA
0.040539 235.219                         ! EMO, EFA
0.040117 235.125                         ! EMO, EFA
0.039695 235.030                         ! EMO, EFA
0.039273 234.932                         ! EMO, EFA
0.038851 234.832                         ! EMO, EFA
0.038468 234.744                         ! EMO, EFA
0.038081 234.660                         ! EMO, EFA
0.037694 234.574                         ! EMO, EFA
0.037307 234.486                         ! EMO, EFA
0.036917 234.396                         ! EMO, EFA
0.036527 234.304                         ! EMO, EFA
0.036011 234.178                         ! EMO, EFA
0.035494 234.049                         ! EMO, EFA
0.035006 233.924                         ! EMO, EFA
0.034528 233.797                         ! EMO, EFA
0.034115 233.685                         ! EMO, EFA
0.033621 233.548                         ! EMO, EFA
0.033156 233.414                         ! EMO, EFA
0.032398 233.188                         ! EMO, EFA
0.031832 233.018                         ! EMO, EFA
0.031515 232.936                         ! EMO, EFA
0.031209 232.856                         ! EMO, EFA
0.030902 232.774                         ! EMO, EFA
0.030581 232.687                         ! EMO, EFA
0.030261 232.598                         ! EMO, EFA
0.029887 232.491                         ! EMO, EFA
0.029513 232.382                         ! EMO, EFA
0.029060 232.247                         ! EMO, EFA
0.028608 232.121                         ! EMO, EFA
0.028134 232.056                         ! EMO, EFA
0.027659 231.990                         ! EMO, EFA
0.026926 231.883                         ! EMO, EFA
0.026193 231.770                         ! EMO, EFA
0.025787 231.705                         ! EMO, EFA
0.025398 231.656                         ! EMO, EFA
0.024880 231.674                         ! EMO, EFA
0.024361 231.692                         ! EMO, EFA
0.023976 231.705                         ! EMO, EFA
0.023592 231.720                         ! EMO, EFA
0.023072 231.740                         ! EMO, EFA
0.022582 231.801                         ! EMO, EFA
0.022071 231.910                         ! EMO, EFA
0.021560 232.024                         ! EMO, EFA
0.021090 232.135                         ! EMO, EFA
0.020620 232.250                         ! EMO, EFA
0.020294 232.369                         ! EMO, EFA
0.020010 232.501                         ! EMO, EFA
0.019726 232.637                         ! EMO, EFA
0.019443 232.777                         ! EMO, EFA
0.019160 232.921                         ! EMO, EFA
0.018876 233.070                         ! EMO, EFA
0.018603 233.214                         ! EMO, EFA
0.018333 233.359                         ! EMO, EFA
0.018032 233.527                         ! EMO, EFA
0.017731 233.700                         ! EMO, EFA
0.017414 233.889                         ! EMO, EFA
0.017113 234.066                         ! EMO, EFA
0.016830 234.222                         ! EMO, EFA
0.016547 234.384                         ! EMO, EFA
0.016202 234.589                         ! EMO, EFA
0.015858 234.803                         ! EMO, EFA
0.015564 234.948                         ! EMO, EFA
0.015273 235.092                         ! EMO, EFA
0.015070 235.196                         ! EMO, EFA
0.014866 235.303                         ! EMO, EFA
0.014671 235.409                         ! EMO, EFA
0.014484 235.574                         ! EMO, EFA
0.014297 235.762                         ! EMO, EFA
0.014126 235.938                         ! EMO, EFA
0.013969 236.104                         ! EMO, EFA
0.013807 236.279                         ! EMO, EFA
0.013595 236.495                         ! EMO, EFA
0.013345 236.747                         ! EMO, EFA
0.013111 236.993                         ! EMO, EFA
0.012909 237.211                         ! EMO, EFA
0.012716 237.427                         ! EMO, EFA
0.012471 237.703                         ! EMO, EFA
0.012269 237.935                         ! EMO, EFA
0.012064 238.181                         ! EMO, EFA
0.011862 238.429                         ! EMO, EFA
0.011650 238.701                         ! EMO, EFA
0.011425 238.992                         ! EMO, EFA
0.011046 239.497                         ! EMO, EFA
0.010650 240.065                         ! EMO, EFA
0.010270 240.667                         ! EMO, EFA
0.009883 241.368                         ! EMO, EFA
0.009497 242.127                         ! EMO, EFA
0.009110 242.955                         ! EMO, EFA
0.008697 243.906                         ! EMO, EFA
0.008287 244.950                         ! EMO, EFA
0.007881 246.103                         ! EMO, EFA
0.007495 247.423                         ! EMO, EFA
0.007114 248.888                         ! EMO, EFA
0.006703 250.681                         ! EMO, EFA
0.006400 252.394                         ! EMO, EFA
0.006077 254.489                         ! EMO, EFA
0.005843 256.190                         ! EMO, EFA
0.005615 258.023                         ! EMO, EFA
0.005393 259.973                         ! EMO, EFA
0.005178 262.088                         ! EMO, EFA
0.004848 265.890                         ! EMO, EFA
0.004587 269.554                         ! EMO, EFA
0.004365 273.336                         ! EMO, EFA
0.004130 278.315                         ! EMO, EFA
0.003926 284.143                         ! EMO, EFA
0.003790 289.498                         ! EMO, EFA
0.003673 296.455                         ! EMO, EFA
0.003630 303.412                         ! EMO, EFA
0.003643 310.637                         ! EMO, EFA
0.003704 317.170                         ! EMO, EFA
0.003818 323.977                         ! EMO, EFA
0.004002 330.932                         ! EMO, EFA
0.004195 336.152                         ! EMO, EFA
0.004387 340.264                         ! EMO, EFA
0.004609 343.959                         ! EMO, EFA
0.004858 347.243                         ! EMO, EFA
0.005120 350.198                         ! EMO, EFA
0.005373 352.784                         ! EMO, EFA
0.005627 355.109                         ! EMO, EFA
0.005890 357.230                         ! EMO, EFA
0.006175 359.029                         ! EMO, EFA
0.006438 0.515                           ! EMO, EFA
0.006704 1.883                           ! EMO, EFA
0.006931 3.097                           ! EMO, EFA
0.007160 4.233                           ! EMO, EFA
0.007393 5.298                           ! EMO, EFA
0.007653 6.208                           ! EMO, EFA
0.007915 7.055                           ! EMO, EFA
0.008179 7.848                           ! EMO, EFA
0.008458 8.757                           ! EMO, EFA
0.008735 9.609                           ! EMO, EFA
0.009029 10.398                          ! EMO, EFA
0.009343 11.120                          ! EMO, EFA
0.009659 11.795                          ! EMO, EFA
0.009942 12.417                          ! EMO, EFA
0.010221 13.002                          ! EMO, EFA
0.010499 13.555                          ! EMO, EFA
0.010784 14.090                          ! EMO, EFA
0.011070 14.599                          ! EMO, EFA
0.011355 15.063                          ! EMO, EFA
0.011640 15.504                          ! EMO, EFA
0.011925 15.890                          ! EMO, EFA
0.012208 16.218                          ! EMO, EFA
0.012492 16.531                          ! EMO, EFA
0.012777 16.823                          ! EMO, EFA
0.013054 17.096                          ! EMO, EFA
0.013312 17.369                          ! EMO, EFA
0.013550 17.645                          ! EMO, EFA
0.013787 17.912                          ! EMO, EFA
0.014025 18.118                          ! EMO, EFA
0.014263 18.314                          ! EMO, EFA
0.014500 18.510                          ! EMO, EFA
0.014738 18.709                          ! EMO, EFA
0.014969 18.895                          ! EMO, EFA
0.015200 19.090                          ! EMO, EFA
0.015430 19.280                          ! EMO, EFA
0.015661 19.458                          ! EMO, EFA
0.015892 19.612                          ! EMO, EFA
0.016123 19.763                          ! EMO, EFA
0.016354 19.890                          ! EMO, EFA
0.016585 20.006                          ! EMO, EFA
0.016830 20.130                          ! EMO, EFA
0.017039 20.257                          ! EMO, EFA
0.017248 20.381                          ! EMO, EFA
0.017489 20.507                          ! EMO, EFA
0.017739 20.631                          ! EMO, EFA
0.017974 20.738                          ! EMO, EFA
0.018183 20.822                          ! EMO, EFA
0.018392 20.905                          ! EMO, EFA
0.018585 20.982                          ! EMO, EFA
0.018777 21.057                          ! EMO, EFA
0.018955 21.133                          ! EMO, EFA
0.019110 21.209                          ! EMO, EFA
0.019265 21.284                          ! EMO, EFA
0.019449 21.331                          ! EMO, EFA
0.019642 21.369                          ! EMO, EFA
0.019834 21.408                          ! EMO, EFA
0.020003 21.442                          ! EMO, EFA
0.020172 21.476                          ! EMO, EFA
0.020332 21.500                          ! EMO, EFA
0.020469 21.500                          ! EMO, EFA
0.020606 21.500                          ! EMO, EFA
0.020742 21.500                          ! EMO, EFA
0.020878 21.500                          ! EMO, EFA
0.021014 21.500                          ! EMO, EFA
0.021158 21.485                          ! EMO, EFA
0.021302 21.448                          ! EMO, EFA
0.021446 21.412                          ! EMO, EFA
0.021568 21.400                          ! EMO, EFA
0.021677 21.399                          ! EMO, EFA
0.021787 21.398                          ! EMO, EFA
0.021895 21.333                          ! EMO, EFA
0.022004 21.262                          ! EMO, EFA
0.022126 21.181                          ! EMO, EFA
0.022248 21.099                          ! EMO, EFA
0.022371 21.018                          ! EMO, EFA
0.022493 20.968                          ! EMO, EFA
0.022615 20.926                          ! EMO, EFA
0.022737 20.872                          ! EMO, EFA