OceanMesh2D   
Run_001
1 20 1 50 1000    	 ! NFOVER 
0        	 ! NABOUT 
300        	 ! NSCREEN 
0        	 ! IHOT 
2          	 ! ICS
511112          	 ! IM 
1            	 ! NOLIBF 
2            	 ! NOLIFA 
1           	 ! NOLICA 
1           	 ! NOLICAT 
5           	 ! NWP 
sea_surface_height_above_geoid
primitive_weighting_in_continuity_equation
mannings_n_at_sea_floor
internal_tide_friction
subgrid_barrier
1   	 	 ! NCOR 
1   	 	 ! NTIP 
12               ! NWS
1                ! NRAMP
9.810000         ! G
-3               ! TAU0
2.0              ! DTDP
0                ! STATIM
0                ! REFTIM
900              ! WTMINC
12.0000                  ! RNDY
2   	 	 ! DRAMP 
0 1 0   	  ! A00, B00, C00 
0.1 0 0 0.01    	 ! H0, 2*dummy, VELMIN 
-80.994441 31.629691  	 	 ! SLAM0, SFEA0 
0.000500     	 ! CF 
-0.050000     	 	 ! ELSM 
0.000000   	 ! CORI 
8   	 	 ! NTIF 
Q1 
0.019303  6.495854130e-05 0.695000 1.153336 2.593005   	 !  TPK, AMIGT, ETRF, FFT, FACET 
O1 
0.100818  6.759774407e-05 0.695000 1.150540 153.727654   	 !  TPK, AMIGT, ETRF, FFT, FACET 
P1 
0.047037  7.252294576e-05 0.706000 0.993829 285.404812   	 !  TPK, AMIGT, ETRF, FFT, FACET 
K1 
0.141909  7.292115851e-05 0.736000 1.089095 80.401872   	 !  TPK, AMIGT, ETRF, FFT, FACET 
N2 
0.046510  1.378796998e-04 0.693000 0.974235 85.208263   	 !  TPK, AMIGT, ETRF, FFT, FACET 
M2 
0.242922  1.405189028e-04 0.693000 0.973028 236.427877   	 !  TPK, AMIGT, ETRF, FFT, FACET 
S2 
0.113308  1.454441043e-04 0.693000 1.001642 359.914967   	 !  TPK, AMIGT, ETRF, FFT, FACET 
K2 
0.030779  1.458423170e-04 0.693000 1.231645 341.333425   	 !  TPK, AMIGT, ETRF, FFT, FACET 
8   	 	 ! NBFR 
Q1  
 6.495854130e-05 1.153336 2.593005 
O1  
 6.759774407e-05 1.150540 153.727654 
P1  
 7.252294576e-05 0.993829 285.404812 
K1  
 7.292115851e-05 1.089095 80.401872 
N2  
 1.378796998e-04 0.974235 85.208263 
M2  
 1.405189028e-04 0.973028 236.427877 
S2  
 1.454441043e-04 1.001642 359.914967 
K2  
 1.458423170e-04 1.231645 341.333425 
Q1 
 1.546072434e-02      216.3938861 
 1.539860430e-02      215.3812161 
 1.529586978e-02      214.3184157 
 1.514939202e-02      213.3592958 
 1.498596083e-02      212.5296219 
 1.480662639e-02      211.8093797 
 1.462633983e-02      211.3251057 
 1.446717055e-02      210.9913941 
 1.432759526e-02      210.7420159 
 1.419182356e-02      210.5417079 
 1.409826511e-02      210.4234753 
 1.401217290e-02      210.3227349 
 1.393480612e-02      210.2390851 
 1.386633974e-02      210.1682697 
 1.379084718e-02      210.0937222 
 1.371590036e-02      210.0207272 
 1.364333345e-02      209.9442431 
 1.355919575e-02      209.8376119 
 1.346983385e-02      209.6973871 
 1.338528340e-02      209.5453472 
 1.330614307e-02      209.3889545 
 1.323886724e-02       209.236165 
 1.316749855e-02      209.0339973 
 1.309798138e-02      208.7840069 
 1.303783874e-02      208.5342428 
 1.297602050e-02      208.2571937 
 1.291473870e-02       207.995159 
 1.285006312e-02       207.724901 
 1.279301580e-02      207.4913224 
 1.273543891e-02      207.2597313 
 1.267207449e-02      207.0100736 
 1.260674716e-02      206.7440466 
 1.254043885e-02      206.4567869 
 1.247548323e-02      206.1601367 
 1.242951798e-02      205.9430517 
 1.237372950e-02      205.6980685 
 1.229900310e-02      205.3537253 
 1.221772500e-02         204.9684 
 1.214275492e-02      204.6027094 
 1.207274739e-02      204.2609904 
 1.201204721e-02        203.95958 
 1.195329655e-02      203.6663651 
 1.188946289e-02      203.3416172 
 1.183248205e-02      203.0470509 
 1.177783650e-02      202.7598961 
 1.172277304e-02      202.4644702 
 1.166991858e-02      202.1754964 
 1.161036555e-02      201.8434018 
 1.155527419e-02      201.5214949 
 1.150015446e-02      201.2084835 
 1.143650987e-02      200.8331082 
 1.137266031e-02      200.4487437 
 1.131143908e-02      200.0713986 
 1.124972774e-02      199.6830947 
 1.118569615e-02      199.2708206 
 1.111561635e-02      198.8073022 
 1.104934196e-02      198.3587388 
 1.099247121e-02      197.9644555 
 1.093081566e-02       197.525824 
 1.087266603e-02      197.1026947 
 1.082098307e-02      196.7169595 
 1.076539982e-02      196.2917018 
 1.068499463e-02      195.6570953 
 1.062982423e-02      195.2062654 
 1.057044626e-02      194.7070808 
 1.051906271e-02      194.2613901 
 1.046783522e-02        193.80478 
 1.041458949e-02       193.314165 
 1.037000747e-02      192.8913167 
 1.032983370e-02      192.4985215 
 1.028633616e-02      192.0616154 
 1.024255418e-02      191.6077455 
 1.020266165e-02      191.1806216 
 1.016504597e-02      190.7649892 
 1.012903060e-02      190.3537111 
 1.009326301e-02      189.9341477 
 1.005389218e-02      189.4539904 
 1.001374247e-02        188.94461 
 9.975664330e-03      188.4405576 
 9.940185375e-03      187.9503761 
 9.883900633e-03      187.1242451 
 9.850877970e-03      186.6076965 
 9.822757087e-03      186.1467959 
 9.795454887e-03      185.6754697 
 9.767517324e-03      185.1692577 
 9.741859929e-03      184.6758794 
 9.712298331e-03       184.069427 
 9.686742084e-03      183.5018575 
 9.663621735e-03      182.9491117 
 9.640860044e-03      182.3518473 
 9.622546720e-03      181.8222198 
 9.604951841e-03      181.2579319 
 9.587892813e-03      180.6383145 
 9.575391079e-03      180.1147896 
 9.564085433e-03      179.5619012 
 9.554496485e-03      179.0019567 
 9.546538865e-03      178.3878187 
 9.542139328e-03      177.8806938 
 9.539452285e-03      177.4071232 
 9.538073063e-03      176.9505551 
 9.538055892e-03      176.4669216 
 9.540155482e-03      175.9881334 
 9.543688008e-03      175.5115184 
 9.550016067e-03      174.9920908 
 9.558372855e-03       174.464512 
 9.567886339e-03      173.9830942 
 9.580908286e-03      173.4249682 
 9.594589015e-03      172.9294228 
 9.611966335e-03      172.3968973 
 9.631918515e-03      171.8738938 
 9.655035079e-03      171.3569641 
 9.683806541e-03       170.762935 
 9.717695413e-03      170.1659589 
 9.752072088e-03      169.6490703 
 9.786883915e-03       169.158514 
 9.827298950e-03      168.6186531 
 9.871477404e-03      168.0816349 
 9.917647961e-03        167.56283 
 9.972874386e-03      167.0027086 
 1.003095079e-02      166.4738184 
 1.009181426e-02      165.9707933 
 1.016942032e-02      165.3876202 
 1.023736261e-02      164.9157525 
 1.030718552e-02      164.4539963 
 1.037801195e-02      163.9968614 
 1.044226102e-02      163.5811868 
 1.049864671e-02      163.2020602 
 1.054437178e-02      162.8756828 
 1.058283323e-02      162.5666003 
 1.060107441e-02      162.3252528 
 1.053783548e-02      161.7947997 
 9.297774852e-03      160.5460991 
 5.956075803e-03      162.5322054 
 4.207892425e-03      170.8185924 
 3.066932192e-03      188.8416346 
 2.706607563e-03      212.8062114 
 2.786766918e-03      234.8024035 
 3.231245604e-03      252.9727131 
 3.826262098e-03      263.3966406 
 4.493566437e-03      269.9070318 
 5.423213700e-03      274.9978694 
 6.050414975e-03      277.0812696 
 6.747906910e-03       278.421691 
 7.051974093e-03      278.9738047 
 7.474354829e-03      279.7304415 
 7.913553535e-03      278.0436071 
O1 
 8.057134895e-02       234.494031 
 8.021520888e-02      233.4315621 
 7.961879128e-02      232.3281678 
 7.878296925e-02       231.360201 
 7.785348644e-02       230.544259 
 7.684531022e-02      229.8565584 
 7.586991920e-02      229.4173848 
 7.502931204e-02      229.1279126 
 7.431138145e-02      228.9129967 
 7.363268438e-02      228.7317474 
 7.316928844e-02      228.6185692 
 7.274195182e-02      228.5169434 
 7.235497317e-02      228.4279086 
 7.200862861e-02      228.3487283 
 7.162366258e-02      228.2596325 
 7.123785153e-02      228.1673645 
 7.085573978e-02      228.0715514 
 7.039495062e-02      227.9462278 
 6.988053423e-02      227.7932826 
 6.937881456e-02      227.6319201 
 6.890304593e-02      227.4657786 
 6.849004174e-02      227.3059972 
 6.802975954e-02       227.099452 
 6.754909984e-02      226.8402362 
 6.711623977e-02      226.5733176 
 6.665991140e-02        226.27577 
 6.621558037e-02      225.9967053 
 6.575718935e-02      225.7089057 
 6.536245884e-02      225.4595338 
 6.497064756e-02      225.2107793 
 6.454488482e-02      224.9399918 
 6.410518379e-02      224.6463784 
 6.365649435e-02      224.3211361 
 6.321635717e-02      223.9782983 
 6.292846916e-02      223.7128549 
 6.253589270e-02      223.4403547 
 6.203909091e-02      223.0347724 
 6.149953698e-02      222.5714754 
 6.100042527e-02      222.1269764 
 6.053407196e-02      221.7097837 
 6.012830663e-02      221.3400419 
 5.973505624e-02      220.9784476 
 5.930455192e-02      220.5763338 
 5.891820900e-02      220.2111503 
 5.854608024e-02      219.8544615 
 5.816895510e-02      219.4856855 
 5.780632492e-02      219.1225878 
 5.739718282e-02      218.7020334 
 5.702076605e-02      218.2895314 
 5.663749800e-02      217.8927053 
 5.619699726e-02      217.4145023 
 5.575422737e-02      216.9253693 
 5.532884023e-02      216.4448965 
 5.489978474e-02      215.9493916 
 5.445496334e-02      215.4219542 
 5.396876099e-02      214.8273107 
 5.350987789e-02      214.2509941 
 5.311707060e-02      213.7431816 
 5.269258424e-02      213.1767638 
 5.229388579e-02      212.6290038 
 5.194087530e-02      212.1281548 
 5.156288157e-02      211.5745358 
 5.101950400e-02      210.7449537 
 5.064918893e-02      210.1534028 
 5.025335432e-02       209.496383 
 4.991316831e-02      208.9080487 
 4.957649321e-02      208.3036344 
 4.922925613e-02      207.6527006 
 4.894084526e-02      207.0903014 
 4.868292595e-02      206.5670219 
 4.840577521e-02      205.9840294 
 4.812914137e-02      205.3775734 
 4.787942056e-02      204.8064267 
 4.764617273e-02      204.2494465 
 4.742485763e-02      203.6980336 
 4.720788374e-02      203.1351305 
 4.697114442e-02      202.4903057 
 4.673354555e-02      201.8059613 
 4.651130825e-02      201.1287063 
 4.630744740e-02      200.4699111 
 4.599117941e-02      199.3607195 
 4.581026653e-02      198.6683828 
 4.565926032e-02       198.051145 
 4.551620514e-02       197.421106 
 4.537295141e-02      196.7459292 
 4.524489452e-02      196.0897113 
 4.510240714e-02      195.2855636 
 4.498462079e-02      194.5355708 
 4.488260323e-02      193.8084442 
 4.478758700e-02      193.0262527 
 4.471694624e-02      192.3361299 
 4.465428750e-02      191.6050163 
 4.460032967e-02      190.8077183 
 4.456782254e-02      190.1383923 
 4.454551122e-02      189.4365492 
 4.453513668e-02      188.7309888 
 4.454029086e-02      187.9632675 
 4.455715690e-02      187.3345674 
 4.458226629e-02      186.7527158 
 4.461481354e-02      186.1956565 
 4.465803697e-02      185.6103984 
 4.471281848e-02      185.0366718 
 4.477615893e-02      184.4709204 
 4.485868013e-02      183.8610306 
 4.495510896e-02      183.2479803 
 4.505444319e-02      182.6953986 
 4.518178402e-02      182.0629782 
 4.530756015e-02      181.5098214 
 4.545781355e-02      180.9240463 
 4.562164431e-02      180.3585635 
 4.580224317e-02      179.8092474 
 4.602334813e-02      179.1942417 
 4.627133997e-02      178.5928141 
 4.651519305e-02      178.0857066 
 4.676144775e-02      177.6184668 
 4.704864991e-02      177.1207926 
 4.736032111e-02      176.6439808 
 4.768593823e-02       176.202404 
 4.807337640e-02       175.748938 
 4.847965481e-02      175.3449834 
 4.890663278e-02      174.9827748 
 4.945621876e-02      174.5901098 
 4.994580455e-02       174.288817 
 5.046033705e-02      173.9994296 
 5.099611232e-02      173.7073702 
 5.149399986e-02      173.4243617 
 5.193835080e-02      173.1432547 
 5.229720632e-02      172.8801881 
 5.257909473e-02      172.6170312 
 5.268026715e-02      172.3998082 
 5.224793672e-02       171.803327 
 4.465420930e-02      169.4832529 
 2.285845363e-02      165.6745739 
 9.710275092e-03      165.9113276 
 2.787272117e-03      299.3809753 
 1.203230864e-02      323.0617827 
 1.982570609e-02      326.3031353 
 2.739228452e-02      327.4557364 
 3.355664761e-02      327.2570484 
 3.920678848e-02      326.5561763 
 4.612150253e-02      325.2576834 
 5.047511792e-02      324.3377793 
 5.503640712e-02      323.1562597 
 5.704363737e-02      322.7372837 
 5.985654277e-02      322.2498189 
 6.163278072e-02      320.0926791 
P1 
 3.132919441e-02      246.5873955 
 3.119877570e-02       245.406668 
 3.096528463e-02      244.1931444 
 3.061114351e-02      243.1352062 
 3.019962851e-02      242.2442456 
 2.974822977e-02      241.4925827 
 2.933471438e-02      241.0042243 
 2.899752296e-02      240.6581309 
 2.872839939e-02      240.3689101 
 2.849203340e-02      240.0857114 
 2.833549973e-02      239.8868159 
 2.819233200e-02      239.6927337 
 2.806103759e-02      239.5088642 
 2.794187304e-02      239.3373567 
 2.780793586e-02      239.1327299 
 2.767180906e-02      238.9143356 
 2.753067338e-02      238.6914165 
 2.734643732e-02      238.4188593 
 2.712204258e-02      238.1114746 
 2.689194529e-02      237.8045252 
 2.666966014e-02      237.5010165 
 2.647001653e-02      237.2297447 
 2.623081068e-02      236.9081983 
 2.595866622e-02      236.5232345 
 2.570254519e-02      236.1348406 
 2.542624823e-02      235.7011956 
 2.516382314e-02      235.2850065 
 2.490148706e-02      234.8533855 
 2.468251026e-02      234.4790228 
 2.446961335e-02      234.1022526 
 2.424166932e-02      233.6854221 
 2.400686741e-02      233.2294182 
 2.376649874e-02      232.7262918 
 2.353204594e-02      232.1957586 
 2.339343927e-02      231.7719916 
 2.317865277e-02      231.3606879 
 2.292495078e-02      230.7301273 
 2.265311182e-02      230.0087551 
 2.240485700e-02      229.3166004 
 2.217666609e-02      228.6653336 
 2.198035906e-02      228.0869563 
 2.179228615e-02      227.5191954 
 2.158754476e-02      226.8859453 
 2.140471086e-02      226.3100525 
 2.122963483e-02      225.7468115 
 2.105327500e-02       225.163039 
 2.088542557e-02      224.5859098 
 2.069809195e-02      223.9144278 
 2.052982000e-02      223.2544698 
 2.035562769e-02      222.6170823 
 2.015934681e-02      221.8494663 
 1.996384058e-02      221.0647014 
 1.977777520e-02      220.2935249 
 1.959226135e-02      219.4977908 
 1.940258414e-02      218.6500536 
 1.919866499e-02      217.6944788 
 1.900921382e-02      216.7688035 
 1.884981283e-02      215.9543668 
 1.868053951e-02      215.0470692 
 1.852451669e-02      214.1712203 
 1.838915238e-02      213.3720235 
 1.824714451e-02      212.4910082 
 1.804886156e-02      211.1753313 
 1.791821890e-02      210.2418205 
 1.778272660e-02      209.2094102 
 1.766996183e-02      208.2900056 
 1.756212792e-02      207.3501056 
 1.745514760e-02      206.3442664 
 1.736970610e-02      205.4808317 
 1.729629424e-02      204.6826191 
 1.722047040e-02      203.7995258 
 1.714829871e-02      202.8874282 
 1.708647264e-02      202.0357348 
 1.703217834e-02      201.2119545 
 1.698375171e-02      200.4028863 
 1.693923405e-02      199.5838737 
 1.689480067e-02      198.6539978 
 1.685512126e-02      197.6779887 
 1.682295150e-02      196.7220613 
 1.679811154e-02      195.8028071 
 1.677027719e-02      194.2785886 
 1.676140831e-02      193.3420551 
 1.675851957e-02      192.5166843 
 1.676097486e-02      191.6845479 
 1.676862320e-02      190.8031475 
 1.678156644e-02      189.9578273 
 1.680410494e-02      188.9369727 
 1.683171830e-02      187.9996775 
 1.686412745e-02      187.1049012 
 1.690547023e-02      186.1570426 
 1.694729004e-02      185.3340524 
 1.699673462e-02      184.4747423 
 1.705652084e-02       183.552774 
 1.711140914e-02        182.79099 
 1.717358067e-02       182.003715 
 1.724067680e-02      181.2249245 
 1.731922050e-02      180.3908337 
 1.738811913e-02      179.7187931 
 1.745500472e-02      179.1057395 
 1.752200929e-02      178.5261865 
 1.759560664e-02      177.9255436 
 1.767142333e-02      177.3440434 
 1.774913195e-02      176.7777164 
 1.783768110e-02      176.1755292 
 1.793080666e-02      175.5797678 
 1.801863398e-02      175.0509598 
 1.812317106e-02      174.4541897 
 1.821882563e-02      173.9405574 
 1.832517558e-02      173.4054887 
 1.843314420e-02      172.8954608 
 1.854444027e-02      172.4081773 
 1.867317603e-02      171.8728883 
 1.880730191e-02        171.35857 
 1.893069678e-02      170.9341829 
 1.904896362e-02      170.5539614 
 1.918007979e-02      170.1606006 
 1.931413019e-02      169.7965267 
 1.944602968e-02      169.4744224 
 1.959300204e-02       169.162945 
 1.973678351e-02      168.9093855 
 1.987819660e-02      168.7104517 
 2.004759139e-02      168.5411874 
 2.018923484e-02      168.4582766 
 2.033154744e-02      168.4255707 
 2.047511426e-02      168.4392554 
 2.060683902e-02      168.4862069 
 2.072275277e-02      168.5522359 
 2.081140414e-02      168.6258502 
 2.086347213e-02      168.7149723 
 2.084739776e-02      168.7806876 
 2.077418110e-02      168.3520527 
 1.935711654e-02      161.6390358 
 1.580048847e-02      139.6138564 
 1.416004513e-02      123.6933109 
 1.311593443e-02      107.6344657 
 1.269173909e-02      93.36859303 
 1.297484534e-02      81.26906046 
 1.371042003e-02      70.03903435 
 1.453855824e-02      61.32349932 
 1.547913125e-02      53.75418767 
 1.685236438e-02      45.08096925 
 1.782153408e-02      40.01050108 
 1.887056820e-02      34.81775107 
 1.938999762e-02      32.76317904 
 2.017336934e-02      30.12699155 
 2.010749122e-02      26.13937808 
K1 
 9.879973916e-02      246.9578121 
 9.820340825e-02      245.7304819 
 9.728287765e-02      244.4630535 
 9.603095255e-02       243.366595 
 9.463456099e-02      242.4506729 
 9.313995133e-02      241.6837833 
 9.180525933e-02      241.1828076 
 9.073436718e-02      240.8179786 
 8.988849875e-02      240.5045462 
 8.915225474e-02      240.1911485 
 8.866680866e-02      239.9689562 
 8.822330552e-02      239.7506204 
 8.781619135e-02      239.5435554 
 8.744558548e-02      239.3503354 
 8.702919051e-02      239.1194437 
 8.660517606e-02       238.873708 
 8.616407823e-02      238.6235547 
 8.558456902e-02      238.3198109 
 8.487431759e-02       237.979987 
 8.414361133e-02      237.6424534 
 8.343758475e-02      237.3098094 
 8.280259472e-02      237.0144106 
 8.203811320e-02       236.667431 
 8.116305602e-02      236.2558484 
 8.033680928e-02       235.842209 
 7.944450486e-02      235.3808936 
 7.859921157e-02      234.9367303 
 7.775659823e-02      234.4747304 
 7.705516887e-02      234.0737994 
 7.637468733e-02       233.669664 
 7.564764230e-02      233.2216465 
 7.489917410e-02      232.7318085 
 7.413324533e-02      232.1915956 
 7.338663648e-02      231.6225417 
 7.295234308e-02      231.1674728 
 7.226461286e-02      230.7265534 
 7.146097021e-02      230.0504998 
 7.060104530e-02      229.2775525 
 6.981680573e-02       228.536163 
 6.909738072e-02      227.8392804 
 6.847970001e-02       227.220705 
 6.788867340e-02      226.6136309 
 6.724644466e-02      225.9369942 
 6.667392189e-02       225.322015 
 6.612621230e-02      224.7206838 
 6.557554258e-02       224.097883 
 6.505261099e-02      223.4826822 
 6.447010070e-02      222.7675105 
 6.394962514e-02       222.065115 
 6.340917931e-02      221.3871424 
 6.280267223e-02      220.5715772 
 6.219959316e-02      219.7395101 
 6.162701029e-02      218.9226008 
 6.105740876e-02       218.080528 
 6.047660109e-02      217.1848717 
 5.985415100e-02      216.1772529 
 5.927750041e-02      215.2029858 
 5.879375807e-02      214.3470591 
 5.828204595e-02      213.3953268 
 5.781191989e-02       212.478125 
 5.740529451e-02      211.6427932 
 5.698018329e-02      210.7234748 
 5.638940592e-02      209.3536875 
 5.600187801e-02      208.3841901 
 5.560173011e-02      207.3140775 
 5.527023674e-02       206.363051 
 5.495456387e-02      205.3927463 
 5.464314887e-02      204.3564181 
 5.439578323e-02        203.46839 
 5.418397254e-02       202.649022 
 5.396636591e-02      201.7438548 
 5.376023282e-02      200.8104159 
 5.358461199e-02      199.9405698 
 5.343127467e-02      199.1003575 
 5.329565358e-02      198.2766034 
 5.317145750e-02      197.4437479 
 5.304879073e-02      196.4997608 
 5.294061742e-02      195.5104079 
 5.285429385e-02      194.5432075 
 5.278894657e-02      193.6145842 
 5.271837803e-02      192.0785501 
 5.269823722e-02      191.1374513 
 5.269379917e-02      190.3087366 
 5.270416024e-02      189.4742893 
 5.272824586e-02      188.5912303 
 5.276565706e-02      187.7467146 
 5.282882869e-02      186.7269468 
 5.290430454e-02       185.790921 
 5.299141101e-02      184.8981946 
 5.310021508e-02      183.9528953 
 5.321012745e-02      183.1318643 
 5.333847408e-02      182.2748588 
 5.349172908e-02      181.3558886 
 5.363166672e-02       180.595955 
 5.378821532e-02       179.811166 
 5.395548180e-02      179.0355861 
 5.415029796e-02      178.2043052 
 5.431871462e-02      177.5349089 
 5.448111338e-02      176.9249249 
 5.464292197e-02      176.3483354 
 5.481881439e-02      175.7518513 
 5.499848105e-02      175.1741003 
 5.518134150e-02      174.6111893 
 5.538782715e-02      174.0145087 
 5.560406342e-02      173.4244989 
 5.580598452e-02      172.9023327 
 5.604407144e-02      172.3138275 
 5.626125402e-02      171.8090347 
 5.650039784e-02      171.2849877 
 5.674201990e-02      170.7870529 
 5.698999238e-02       170.313468 
 5.727455495e-02      169.7971096 
 5.756894553e-02      169.3040049 
 5.784182136e-02      168.9025133 
 5.810248877e-02      168.5480068 
 5.839229222e-02      168.1894522 
 5.869148270e-02      167.8663612 
 5.898849139e-02      167.5925819 
 5.932553046e-02       167.344153 
 5.966448192e-02      167.1618881 
 6.000879889e-02      167.0425288 
 6.044003647e-02      166.9836145 
 6.082182266e-02      167.0036009 
 6.123124161e-02        167.08043 
 6.167644931e-02      167.2054561 
 6.211926395e-02       167.347753 
 6.254326067e-02      167.4851274 
 6.290137198e-02      167.5985666 
 6.315851340e-02      167.6928337 
 6.317024863e-02       167.738553 
 6.293553061e-02      167.2597246 
 5.804898293e-02      160.8698179 
 4.508090879e-02       139.548622 
 3.983101467e-02      120.9801722 
 3.687892658e-02      100.9748313 
 3.681857534e-02      82.69299272 
 3.948167069e-02      68.63723595 
 4.378315161e-02      56.94514784 
 4.803019072e-02      48.55502679 
 5.243276171e-02      41.64200405 
 5.840152757e-02      34.06978429 
 6.241663702e-02      29.79884048 
 6.667991360e-02      25.50647241 
 6.869492829e-02      23.83530768 
 7.165374041e-02      21.71084547 
 7.189437984e-02      18.42899581 
N2 
 1.058210893e-01      208.2481629 
 1.032586474e-01       206.885852 
 9.958751796e-02        205.33523 
 9.495218374e-02      203.8955727 
 9.007134338e-02      202.6602358 
 8.506503368e-02      201.6089324 
 8.041826343e-02      200.8717811 
 7.648141632e-02      200.3646809 
 7.306851752e-02      199.9870944 
 6.960259988e-02      199.6752462 
 6.713909092e-02      199.4982785 
 6.482224499e-02      199.3747943 
 6.272902087e-02       199.308294 
 6.087953615e-02      199.2866583 
 5.877638335e-02      199.3049226 
 5.663481395e-02      199.3618728 
 5.457882016e-02      199.4648352 
 5.232089637e-02      199.6704325 
 5.011598542e-02      200.0229646 
 4.811310778e-02      200.4531963 
 4.618428611e-02      200.9058613 
 4.454737526e-02      201.3364361 
 4.284990131e-02        201.89959 
 4.111337316e-02      202.6216533 
 3.947929656e-02      203.3912605 
 3.782622591e-02      204.3328371 
 3.634296279e-02      205.3385799 
 3.478504680e-02      206.4577341 
 3.338527776e-02       207.495352 
 3.198044032e-02      208.6183016 
 3.046708157e-02      209.9729173 
 2.886342632e-02      211.5811269 
 2.714305086e-02      213.5410269 
 2.535845888e-02      215.8837836 
 2.390940830e-02      217.6997202 
 2.270748726e-02       220.296526 
 2.089422088e-02      224.3124869 
 1.902150645e-02       229.763349 
 1.750457900e-02      235.8948195 
 1.637711984e-02      242.4252959 
 1.563496598e-02      248.7485114 
 1.514379736e-02      255.3077687 
 1.487955883e-02        262.74856 
 1.488772972e-02      269.3208778 
 1.509457561e-02      275.4078799 
 1.548476122e-02      281.2888369 
 1.601639203e-02      286.6717094 
 1.679301149e-02      292.3856446 
 1.767756446e-02       297.423233 
 1.865835207e-02      301.4970767 
 1.989984062e-02      305.6426369 
 2.121337618e-02      309.0838083 
 2.252910458e-02      311.8855619 
 2.389734650e-02      314.3065763 
 2.535843046e-02      316.4908058 
 2.699502428e-02      318.5539088 
 2.855284300e-02      320.2021694 
 2.989757279e-02      321.4384889 
 3.137170991e-02      322.6388609 
 3.276632531e-02      323.6495577 
 3.401530285e-02      324.4727257 
 3.536985642e-02        325.29341 
 3.735001854e-02      326.3806836 
 3.872522604e-02      327.0695238 
 4.021876732e-02      327.7655393 
 4.152298395e-02      328.3299863 
 4.283103123e-02      328.8633643 
 4.420995913e-02      329.3888117 
 4.537408152e-02      329.8045628 
 4.642714823e-02      330.1571785 
 4.756581194e-02      330.5126295 
 4.871652458e-02       330.838663 
 4.977289704e-02      331.1135235 
 5.077657229e-02      331.3574788 
 5.174914856e-02      331.5777895 
 5.271481755e-02      331.7769915 
 5.379363583e-02      331.9841731 
 5.491468286e-02      332.1831568 
 5.600067169e-02        332.36521 
 5.703017408e-02      332.5212111 
 5.871476974e-02      332.7433188 
 5.974064811e-02      332.8691382 
 6.063309231e-02      332.9674361 
 6.152234646e-02      333.0526769 
 6.245606390e-02      333.1278723 
 6.334941014e-02      333.1911971 
 6.442270679e-02      333.2574213 
 6.539645537e-02      333.3033287 
 6.632565377e-02      333.3367058 
 6.730922697e-02      333.3639098 
 6.816561407e-02      333.3835235 
 6.906571903e-02      333.4023075 
 7.004041827e-02      333.4164925 
 7.085278938e-02      333.4243819 
 7.169626558e-02      333.4258406 
 7.254360373e-02       333.420176 
 7.344667606e-02      333.4032003 
 7.417486438e-02      333.3843283 
 7.485420361e-02       333.359692 
 7.550482649e-02      333.3283045 
 7.618121303e-02      333.2878813 
 7.684285494e-02      333.2420354 
 7.749166171e-02       333.191154 
 7.818699526e-02      333.1310777 
 7.887750089e-02      333.0540324 
 7.949902835e-02      332.9692643 
 8.021213402e-02      332.8595322 
 8.084116909e-02      332.7527949 
 8.150954142e-02      332.6233011 
 8.214888717e-02      332.4769999 
 8.276416364e-02      332.3146582 
 8.350731394e-02       332.125143 
 8.425231453e-02      331.9148818 
 8.486774908e-02      331.6926254 
 8.547289222e-02      331.4670567 
 8.616663889e-02      331.2011942 
 8.687090688e-02      330.9069268 
 8.757146389e-02      330.5939524 
 8.834666614e-02      330.2153473 
 8.909979926e-02      329.8145296 
 8.984023415e-02      329.3921845 
 9.073590243e-02      328.8460126 
 9.149004829e-02      328.3620012 
 9.225013231e-02      327.8528373 
 9.302275668e-02      327.3170616 
 9.374547693e-02      326.8058019 
 9.443268643e-02       326.308795 
 9.507469818e-02      325.8410759 
 9.579205714e-02      325.3313272 
 9.644807411e-02      324.9112377 
 9.743960128e-02      324.6293069 
 1.010426472e-01      325.1667406 
 1.078200360e-01      326.8739886 
 1.116069595e-01      326.9335376 
 1.138286668e-01      326.5880308 
 1.143693919e-01      325.9835842 
 1.141796264e-01      325.5177901 
 1.135093608e-01      325.0685479 
 1.125975240e-01      324.6504975 
 1.115164440e-01      324.2166733 
 1.098346881e-01      323.6399115 
 1.086157906e-01       323.288704 
 1.071224234e-01      322.9481104 
 1.064803343e-01      322.7899788 
 1.055985274e-01      322.5562906 
 1.040505527e-01      322.7318901 
M2 
 5.032082029e-01      226.8195877 
 4.888715184e-01      225.3021388 
 4.691895058e-01       223.581561 
 4.449533582e-01      221.9552503 
 4.198163212e-01       220.522635 
 3.944726510e-01      219.2807373 
 3.714839366e-01      218.4407794 
 3.523921787e-01      217.9153377 
 3.360128506e-01      217.5600359 
 3.193560243e-01      217.2856978 
 3.074273672e-01      217.1322029 
 2.961403670e-01      217.0229073 
 2.859139057e-01      216.9539361 
 2.768769200e-01      216.9181336 
 2.664877873e-01      216.9034196 
 2.559209858e-01      216.9450316 
 2.458926363e-01      217.0619612 
 2.350074951e-01      217.2999115 
 2.245120920e-01      217.6914972 
 2.150494622e-01      218.1515651 
 2.059318677e-01      218.6092664 
 1.982602813e-01       219.014193 
 1.906009471e-01      219.5477489 
 1.827762672e-01      220.1857699 
 1.753565425e-01      220.8162877 
 1.677596566e-01      221.5672522 
 1.606421727e-01      222.3545623 
 1.533193725e-01      223.2988676 
 1.467570281e-01       224.190356 
 1.401617244e-01      225.1723834 
 1.330341267e-01      226.3834067 
 1.255255495e-01      227.8460783 
 1.174944319e-01       229.630299 
 1.091269330e-01      231.7723408 
 1.023903067e-01      233.4607885 
 9.642001928e-02      235.8959986 
 8.749365888e-02      239.7981219 
 7.821748852e-02      245.3259908 
 7.064122382e-02      251.8491526 
 6.496796527e-02      259.1493175 
 6.127710785e-02      266.5156113 
 5.896461549e-02      274.3567839 
 5.799126444e-02      283.3420495 
 5.850542888e-02      291.2081862 
 6.010150150e-02       298.328102 
 6.268066071e-02      304.9933912 
 6.596100332e-02      310.8825469 
 7.051926326e-02      316.9031771 
 7.552193978e-02      322.0125385 
 8.083180374e-02      326.0100747 
 8.737182611e-02      329.9591931 
 9.410407573e-02      333.1550617 
 1.007112551e-01      335.7110104 
 1.074679255e-01      337.8927122 
 1.145844063e-01      339.8443414 
 1.224494061e-01      341.6727359 
 1.298391022e-01      343.1184585 
 1.361459352e-01      344.1930449 
 1.429898545e-01      345.2249231 
 1.493979938e-01      346.0816003 
 1.550800137e-01      346.7684957 
 1.611820573e-01      347.4414216 
 1.699938553e-01      348.3118835 
 1.760366688e-01        348.84759 
 1.825342063e-01      349.3769354 
 1.881566042e-01      349.7964593 
 1.937518573e-01      350.1856256 
 1.996176273e-01      350.5631162 
 2.045483169e-01      350.8586563 