ASGS %StormName%
%EnsembleID%
1 20.0 1 20 100.0       ! NFOVER NONFATA OVERRIDE,WARNING ELEV, FORT69, KILL RUN ELEV
0                       ! NABOUT - ABREVIATED OUTPUT OPTION PARAMETER
%NSCREEN%   ! output frequency (in time steps) to STDOUT or adcirc.log
%IHOT%                  ! IHOT - HOT START PARAMETER
2                       ! ICS - COORDINATE SYSTEM SELECTION PARAMETER
0                       ! IM - MODEL SELECTION PARAMETER
1                       ! NOLIBF - BOTTOM FRICTION TERM SELECTION PARAMETER
2                       ! NOLIFA - FINITE AMPLITUDE TERM SELECTION PARAMETER
0                       ! NOLICA - SPATIAL DERIVATIVE CONVECTIVE SELECTION PARAMETER
0                       ! NOLICAT - TIME DERIVATIVE CONVECTIVE TERM SELECTION PARAMETER
4                       ! NWP - VARIABLE BOTTOM FRICTION AND LATERAL VISCOSITY OPTION PARAMETER
average_horizontal_eddy_viscosity_in_sea_water_wrt_depth
sea_surface_height_above_geoid
primitive_weighting_in_continuity_equation
mannings_n_at_sea_floor
1                       ! NCOR - VARIABLE CORIOLIS IN SPACE OPTION PARAMETER
1                       ! NTIP - TIDAL POTENTIAL OPTION PARAMETER
%NWS%                   ! NWS - WIND STRESS AND BAROMETRIC PRESSURE OPTION PARAMETER
1                       ! NRAMP - RAMP FUNCTION OPTION
9.81                    ! G - ACCELERATION DUE TO GRAVITY - DETERMINES UNITS
-3.0                    ! TAU0 - WEIGHTING FACTOR IN GWCE
%DT%                    ! DT - TIME STEP (IN SECONDS)
0.0                     ! STATIM - STARTING TIME (IN DAYS)
0.0                     ! REFTIM - REFERENCE TIME (IN DAYS)
%WTIMINC%               ! WTIMINC RSTIMINC in seconds
%RNDAY%                 ! RNDAY - TOTAL LENGTH OF SIMULATION (IN DAYS)
5.0                     ! DRAMP - DURATION OF RAMP FUNCTION (IN DAYS)
0.35 0.30 0.35          ! TIME WEIGHTING FACTORS FOR THE GWCE EQUATION
0.10 0 0 0.01           ! H0, NODEDRYMIN, NODEWETMIN, VELMIN
265.5 29.0              ! SLAM0,SFEA0 - CENTER OF CPP PROJECTION (NOT USED IF ICS=1, NTIP=0, NCOR=0)
0.0 2.0 10.0 1.33333    ! FFACTOR,HBREAK,FTHETA,FGAMMA
20.0                    ! ESL - LATERAL EDDY VISCOSITY COEFFICIENT; IGNORED IF NWP =1
0.0                     ! CORI - CORIOLIS PARAMETER - IGNORED IF NCOR = 1
7                       ! NTIF - TOTAL NUMBER OF TIDAL POTENTIAL CONSTITUENTS BE
K1
0.141565  0.000072921158358   0.736  %K1NF%  %K1EQARG%
O1
0.100514  0.000067597744151   0.695  %O1NF%  %O1EQARG%
Q1
0.019256  0.000064958541129   0.695  %Q1NF%  %Q1EQARG%
M2
0.242334  0.000140518902509   0.693  %M2NF%  %M2EQARG%
S2
0.112841  0.000145444104333   0.693  %S2NF%  %S2EQARG%
N2
0.046398  0.000137879699487   0.693  %N2NF%  %N2EQARG%
K2
0.030704  0.000145842317201   0.693  %K2NF%  %K2EQARG%
7                       ! NBFR - TOTAL NUMBER OF FORCING FREQUENCIES ON OPEN BOU
K1
0.000072921158358  %K1NF%  %K1EQARG%
O1
0.000067597744151  %O1NF%  %O1EQARG%
Q1
0.000064958541129  %Q1NF%  %Q1EQARG%
M2
0.000140518902509  %M2NF%  %M2EQARG%
S2
0.000145444104333  %S2NF%  %S2EQARG%
N2
0.000137879699487  %N2NF%  %N2EQARG%
K2
0.000145842317201  %K2NF%  %K2EQARG%
K1
0.1012980044E+00  0.2430500183E+03         2         1
0.1009979919E+00  0.2429600220E+03         2         2
0.1007980034E+00  0.2428800354E+03         2         3
0.1005980000E+00  0.2427900085E+03         2         4
0.1003979966E+00  0.2427100220E+03         2         5
0.1000979990E+00  0.2426199951E+03         2         6
0.9989770502E-01  0.2425399933E+03         2         7
0.9969770163E-01  0.2424599915E+03         2         8
0.9949769825E-01  0.2423700104E+03         2         9
0.9919769317E-01  0.2422900085E+03         2        10
0.9899770468E-01  0.2422000122E+03         2        11
0.9879770875E-01  0.2421199951E+03         2        12
0.9859769046E-01  0.2420400391E+03         2        13
0.9829770029E-01  0.2419400024E+03         2        14
0.9809769690E-01  0.2418500366E+03         2        15
0.9779769927E-01  0.2417599945E+03         2        16
0.9759770334E-01  0.2416699829E+03         2        17
0.9729780257E-01  0.2415599976E+03         2        18
0.9699779749E-01  0.2414600372E+03         2        19
0.9669779986E-01  0.2413500061E+03         2        20
0.9639780223E-01  0.2412500153E+03         2        21
0.9609779716E-01  0.2411399841E+03         2        22
0.9579779953E-01  0.2410299988E+03         2        23
0.9559780359E-01  0.2409200134E+03         2        24
0.9529779851E-01  0.2408200073E+03         2        25
0.9499780089E-01  0.2407200317E+03         2        26
0.9479779750E-01  0.2406300354E+03         2        27
0.9449779987E-01  0.2405300140E+03         2        28
0.9429778904E-01  0.2404300232E+03         2        29
0.9399790317E-01  0.2403200226E+03         2        30
0.9379790723E-01  0.2402100220E+03         2        31
0.9349790215E-01  0.2401000366E+03         2        32
0.9319789708E-01  0.2399900208E+03         2        33
0.9289790690E-01  0.2399000244E+03         2        34
0.9269790351E-01  0.2398000183E+03         2        35
0.9239789844E-01  0.2397100220E+03         2        36
0.9209790081E-01  0.2396200104E+03         2        37
0.9189789742E-01  0.2395200195E+03         2        38
0.9159790725E-01  0.2394299927E+03         2        39
0.9129789472E-01  0.2392999878E+03         2        40
0.9089790285E-01  0.2391700134E+03         2        41
0.9059800208E-01  0.2390500183E+03         2        42
0.9019800276E-01  0.2389299927E+03         2        43
0.8999799937E-01  0.2388200378E+03         2        44
0.8959800005E-01  0.2386900177E+03         2        45
0.8929800242E-01  0.2385700073E+03         2        46
0.8879800141E-01  0.2383800049E+03         2        47
0.8839800209E-01  0.2382300110E+03         2        48
0.8819800615E-01  0.2381400146E+03         2        49
0.8799800277E-01  0.2380500183E+03         2        50
0.8789800107E-01  0.2379700317E+03         2        51
0.8769799769E-01  0.2378800049E+03         2        52
0.8749800175E-01  0.2377900085E+03         2        53
0.8719810098E-01  0.2376799927E+03         2        54
0.8699809760E-01  0.2375700226E+03         2        55
0.8669809252E-01  0.2374400024E+03         2        56
0.8649809659E-01  0.2373200073E+03         2        57
0.8629810065E-01  0.2372200165E+03         2        58
0.8609809726E-01  0.2371300354E+03         2        59
0.8579809964E-01  0.2369900055E+03         2        60
0.8549810201E-01  0.2368400116E+03         2        61
0.8529809862E-01  0.2367599792E+03         2        62
0.8509811014E-01  0.2366799927E+03         2        63
0.8489809185E-01  0.2365599976E+03         2        64
0.8479809016E-01  0.2364400024E+03         2        65
0.8459810168E-01  0.2363500214E+03         2        66
0.8449809998E-01  0.2362599945E+03         2        67
0.8429809660E-01  0.2361400299E+03         2        68
0.8409819752E-01  0.2360100098E+03         2        69
0.8389820158E-01  0.2358500061E+03         2        70
0.8369819820E-01  0.2357000122E+03         2        71
0.8349820226E-01  0.2355599976E+03         2        72
0.8329819888E-01  0.2354200134E+03         2        73
0.8309820294E-01  0.2352900238E+03         2        74
0.8289819956E-01  0.2351499939E+03         2        75
0.8269820362E-01  0.2350200195E+03         2        76
0.8249820024E-01  0.2348800201E+03         2        77
0.8229820430E-01  0.2347500000E+03         2        78
0.8209820092E-01  0.2346100159E+03         2        79
0.8189819753E-01  0.2344799957E+03         2        80
0.8169820160E-01  0.2343399963E+03         2        81
0.8139820397E-01  0.2341900024E+03         2        82
0.8119820058E-01  0.2340399170E+03         2        83
0.8089820296E-01  0.2338799133E+03         2        84
0.8069819957E-01  0.2337199402E+03         2        85
0.8039830625E-01  0.2335499115E+03         2        86
0.8009830117E-01  0.2333899231E+03         2        87
0.7969830930E-01  0.2331899109E+03         2        88
0.7929830253E-01  0.2329899292E+03         2        89
0.7889830321E-01  0.2327098999E+03         2        90
0.7849829644E-01  0.2324299011E+03         2        91
0.7819829881E-01  0.2322299194E+03         2        92
0.7789830118E-01  0.2320199280E+03         2        93
0.7759830356E-01  0.2318299103E+03         2        94
0.7719829679E-01  0.2316099243E+03         2        95
0.7689829916E-01  0.2313798981E+03         2        96
0.7649840415E-01  0.2311699219E+03         2        97
0.7619839907E-01  0.2309699097E+03         2        98
0.7589840144E-01  0.2307599182E+03         2        99
0.7559839636E-01  0.2305498962E+03         2       100
0.7519839704E-01  0.2303199158E+03         2       101
0.7489839941E-01  0.2300999298E+03         2       102
0.7459840178E-01  0.2299099121E+03         2       103
0.7429839671E-01  0.2297299194E+03         2       104
0.7389839739E-01  0.2294899139E+03         2       105
0.7369840145E-01  0.2292899323E+03         2       106
0.7339839637E-01  0.2290799103E+03         2       107
0.7319840044E-01  0.2288699188E+03         2       108
0.7289840281E-01  0.2286499176E+03         2       109
0.7259850204E-01  0.2284299164E+03         2       110
0.7219850272E-01  0.2280498962E+03         2       111
0.7179850340E-01  0.2276499176E+03         2       112
0.7139849663E-01  0.2272699127E+03         2       113
0.7099849731E-01  0.2268899231E+03         2       114
0.7049848884E-01  0.2264999237E+03         2       115
0.7009849697E-01  0.2261099091E+03         2       116
0.6969849765E-01  0.2256999207E+03         2       117
0.6929850578E-01  0.2252899017E+03         2       118
0.6889861077E-01  0.2248799133E+03         2       119
0.6849859655E-01  0.2244999084E+03         2       120
0.6809859723E-01  0.2241199036E+03         2       121
0.6769859791E-01  0.2236899109E+03         2       122
0.6739860028E-01  0.2233299103E+03         2       123
0.6699860841E-01  0.2229199066E+03         2       124
0.6669860333E-01  0.2226098938E+03         2       125
0.6639859080E-01  0.2222998962E+03         2       126
0.6619860232E-01  0.2219698944E+03         2       127
0.6589859724E-01  0.2216399231E+03         2       128
0.6549859047E-01  0.2211098785E+03         2       129
0.6509870291E-01  0.2206499176E+03         2       130
0.6479869783E-01  0.2202299194E+03         2       131
0.6439869851E-01  0.2197199097E+03         2       132
0.6399869919E-01  0.2191799164E+03         2       133
0.6359869987E-01  0.2187199097E+03         2       134
0.6319870055E-01  0.2181599121E+03         2       135
0.6279870123E-01  0.2175899200E+03         2       136
0.6229870021E-01  0.2169899139E+03         2       137
0.6189870089E-01  0.2164299164E+03         2       138
0.6149879843E-01  0.2157999115E+03         2       139
0.6109880283E-01  0.2150999146E+03         2       140
0.6059880555E-01  0.2144799347E+03         2       141
0.6029880047E-01  0.2139299164E+03         2       142
0.5989880115E-01  0.2133699188E+03         2       143
0.5949879810E-01  0.2127999115E+03         2       144
0.5919880047E-01  0.2122199249E+03         2       145
0.5879880115E-01  0.2116399078E+03         2       146
0.5849879980E-01  0.2110599213E+03         2       147
0.5819880217E-01  0.2104799042E+03         2       148
0.5789880455E-01  0.2098699036E+03         2       149
0.5759890005E-01  0.2093099060E+03         2       150
0.5739889666E-01  0.2087599182E+03         2       151
0.5709889904E-01  0.2082299194E+03         2       152
0.5689889938E-01  0.2076999207E+03         2       153
0.5659890175E-01  0.2071699066E+03         2       154
0.5639889836E-01  0.2066199188E+03         2       155
0.5609890074E-01  0.2060699158E+03         2       156
0.5589890108E-01  0.2055099182E+03         2       157
0.5569890141E-01  0.2048399200E+03         2       158
0.5539890006E-01  0.2041599274E+03         2       159
0.5519889668E-01  0.2034898987E+03         2       160
0.5499890074E-01  0.2028199158E+03         2       161
0.5469889939E-01  0.2021398926E+03         2       162
0.5449889973E-01  0.2014699097E+03         2       163
0.5429890379E-01  0.2007999115E+03         2       164
0.5409899727E-01  0.2001099091E+03         2       165
0.5399899930E-01  0.1993799133E+03         2       166
0.5379899964E-01  0.1986499176E+03         2       167
0.5359899998E-01  0.1979499207E+03         2       168
0.5349899828E-01  0.1972599182E+03         2       169
0.5329899862E-01  0.1965499115E+03         2       170
0.5319900066E-01  0.1958199005E+03         2       171
0.5309899896E-01  0.1950899200E+03         2       172
0.5299900100E-01  0.1943999329E+03         2       173
0.5289899930E-01  0.1937299042E+03         2       174
0.5289900303E-01  0.1930499268E+03         2       175
0.5279900134E-01  0.1923799133E+03         2       176
0.5269900337E-01  0.1917099152E+03         2       177
0.5269899964E-01  0.1910399170E+03         2       178
0.5259900168E-01  0.1903699188E+03         2       179
0.5259900168E-01  0.1896899109E+03         2       180
0.5259900168E-01  0.1890198975E+03         2       181
0.5259900168E-01  0.1883699188E+03         2       182
0.5259900168E-01  0.1877499237E+03         2       183
0.5259899795E-01  0.1871398773E+03         2       184
0.5259900168E-01  0.1865199127E+03         2       185
0.5259900168E-01  0.1859099121E+03         2       186
0.5269899964E-01  0.1852899170E+03         2       187
0.5279900134E-01  0.1846799164E+03         2       188
0.5279900134E-01  0.1840699158E+03         2       189
0.5289899930E-01  0.1834098969E+03         2       190
0.5299900100E-01  0.1827798920E+03         2       191
0.5309899896E-01  0.1821498566E+03         2       192
0.5319900066E-01  0.1815200806E+03         2       193
0.5329900235E-01  0.1809000702E+03         2       194
0.5339900032E-01  0.1802900848E+03         2       195
0.5359899998E-01  0.1796999664E+03         2       196
0.5369900540E-01  0.1791197357E+03         2       197
0.5379899964E-01  0.1786200256E+03         2       198
0.5389900133E-01  0.1781098938E+03         2       199
0.5409899727E-01  0.1775999451E+03         2       200
0.5419899896E-01  0.1770598755E+03         2       201
0.5439900234E-01  0.1765298920E+03         2       202
0.5449900031E-01  0.1760498657E+03         2       203
0.5469899997E-01  0.1755898743E+03         2       204
0.5489899963E-01  0.1751298981E+03         2       205
0.5509899929E-01  0.1747199097E+03         2       206
0.5519900098E-01  0.1743099060E+03         2       207
0.5529899895E-01  0.1739100189E+03         2       208
0.5549900234E-01  0.1735399475E+03         2       209
0.5569900200E-01  0.1731699982E+03         2       210
0.5579899997E-01  0.1727899780E+03         2       211
0.5599899963E-01  0.1724200134E+03         2       212
0.5619899929E-01  0.1720500031E+03         2       213
0.5639899895E-01  0.1716600037E+03         2       214
0.5659890175E-01  0.1713000031E+03         2       215
0.5679890141E-01  0.1709399872E+03         2       216
0.5699890107E-01  0.1705800018E+03         2       217
0.5719890073E-01  0.1702200012E+03         2       218
0.5739890039E-01  0.1698600159E+03         2       219
0.5759890378E-01  0.1695199890E+03         2       220
0.5779889598E-01  0.1691999969E+03         2       221
0.5799889565E-01  0.1688300171E+03         2       222
0.5829890072E-01  0.1684700165E+03         2       223
0.5849890038E-01  0.1681100006E+03         2       224
0.5879890546E-01  0.1677699738E+03         2       225
0.5899890140E-01  0.1674499969E+03         2       226
0.5929889902E-01  0.1671299896E+03         2       227
0.5949889868E-01  0.1668499908E+03         2       228
0.5979890004E-01  0.1665599976E+03         2       229
0.5999889597E-01  0.1663000336E+03         2       230
0.6019889936E-01  0.1660500031E+03         2       231
0.6039889902E-01  0.1658000031E+03         2       232
0.6059889868E-01  0.1655500031E+03         2       233
0.6089890003E-01  0.1653200226E+03         2       234
0.6109889597E-01  0.1651100159E+03         2       235
0.6139890105E-01  0.1648600006E+03         2       236
0.6159889698E-01  0.1646200256E+03         2       237
0.6179890037E-01  0.1644400024E+03         2       238
0.6199890003E-01  0.1642599945E+03         2       239
0.6219879910E-01  0.1641000061E+03         2       240
0.6239880249E-01  0.1639500122E+03         2       241
0.6259880215E-01  0.1638100128E+03         2       242
0.6269879639E-01  0.1637000122E+03         2       243
0.6289879978E-01  0.1635899963E+03         2       244
0.6299880147E-01  0.1634799957E+03         2       245
0.6319879740E-01  0.1633999939E+03         2       246
0.6339880079E-01  0.1633300018E+03         2       247
0.6359879673E-01  0.1632799835E+03         2       248
0.6379880011E-01  0.1632400055E+03         2       249
0.6399880350E-01  0.1631999969E+03         2       250
0.6419879943E-01  0.1631699066E+03         2       251
0.6439880282E-01  0.1631299133E+03         2       252
0.6459879875E-01  0.1630899048E+03         2       253
0.6479880214E-01  0.1630498962E+03         2       254
0.6509879977E-01  0.1630099030E+03         2       255
0.6529880315E-01  0.1629698944E+03         2       256
0.6539878994E-01  0.1629499207E+03         2       257
0.6559880078E-01  0.1629299164E+03         2       258
0.6589879841E-01  0.1626598816E+03         2       259
0.6639879942E-01  0.1621499023E+03         2       260
0.6669879705E-01  0.1617698975E+03         2       261
0.6709869951E-01  0.1614100189E+03         2       262
0.6699869782E-01  0.1603300018E+03         2       263
0.6299880147E-01  0.1527799988E+03         2       264
0.6049880013E-01  0.1457700043E+03         2       265
0.5909870192E-01  0.1387601013E+03         2       266
0.5859869719E-01  0.1312800903E+03         2       267
0.5959859863E-01  0.1261800995E+03         2       268
0.6069850549E-01  0.1238301010E+03         2       269
0.6199850142E-01  0.1212099991E+03         2       270
0.6339839846E-01  0.1187699966E+03         2       271
0.6499840319E-01  0.1163000031E+03         2       272
0.6659830362E-01  0.1131999969E+03         2       273
0.6839819252E-01  0.1094600067E+03         2       274
0.6959819794E-01  0.1073199997E+03         2       275
0.7099810243E-01  0.1052698975E+03         2       276
0.7239809632E-01  0.1032899017E+03         2       277
0.7379800081E-01  0.1013798981E+03         2       278
0.7539790124E-01  0.9899990082E+02         2       279
0.7699790597E-01  0.9651988983E+02         2       280
0.7879780233E-01  0.9413990021E+02         2       281
0.8069770038E-01  0.9186979675E+02         2       282
0.8269769698E-01  0.8982980347E+02         2       283
0.8459760249E-01  0.8792980194E+02         2       284
0.8659759909E-01  0.8620980072E+02         2       285
0.8779750019E-01  0.8479979706E+02         2       286
0.8899749815E-01  0.8343979645E+02         2       287
0.9029740095E-01  0.8198979950E+02         2       288
0.9159740806E-01  0.8055979919E+02         2       289
0.9249740839E-01  0.7956980133E+02         2       290
0.9329739958E-01  0.7866970062E+02         2       291
0.9439729899E-01  0.7733969879E+02         2       292
O1
0.8599910140E-01  0.2316207123E+03         3         1
0.8579909801E-01  0.2315807343E+03         3         2
0.8569908887E-01  0.2315506897E+03         3         3
0.8549910039E-01  0.2315107117E+03         3         4
0.8529909700E-01  0.2314807129E+03         3         5
0.8509910107E-01  0.2314407196E+03         3         6
0.8499909937E-01  0.2314006958E+03         3         7
0.8479910344E-01  0.2313706207E+03         3         8
0.8459910005E-01  0.2313306122E+03         3         9
0.8449909836E-01  0.2313006134E+03         3        10
0.8429910243E-01  0.2312606201E+03         3        11
0.8409909904E-01  0.2312306213E+03         3        12
0.8399909735E-01  0.2311905975E+03         3        13
0.8379910141E-01  0.2311506042E+03         3        14
0.8359909803E-01  0.2311105957E+03         3        15
0.8339910209E-01  0.2310706329E+03         3        16
0.8319909871E-01  0.2310306091E+03         3        17
0.8299910277E-01  0.2309906158E+03         3        18
0.8279909939E-01  0.2309406128E+03         3        19
0.8259910345E-01  0.2308905945E+03         3        20
0.8239910007E-01  0.2308406219E+03         3        21
0.8209910989E-01  0.2307805939E+03         3        22
0.8189909160E-01  0.2307305908E+03         3        23
0.8169910312E-01  0.2306806335E+03         3        24
0.8149909973E-01  0.2306306152E+03         3        25
0.8129908890E-01  0.2305906067E+03         3        26
0.8109910041E-01  0.2305406036E+03         3        27
0.8089909703E-01  0.2304906158E+03         3        28
0.8069910109E-01  0.2304506226E+03         3        29
0.8049909770E-01  0.2304006195E+03         3        30
0.8029909432E-01  0.2303406219E+03         3        31
0.8009909838E-01  0.2302906342E+03         3        32
0.7989910245E-01  0.2302406006E+03         3        33
0.7969909906E-01  0.2302006073E+03         3        34
0.7949910313E-01  0.2301606140E+03         3        35
0.7929909974E-01  0.2301306152E+03         3        36
0.7909909636E-01  0.2301006165E+03         3        37
0.7889910042E-01  0.2300606079E+03         3        38
0.7869909704E-01  0.2300305786E+03         3        39
0.7839909941E-01  0.2299806213E+03         3        40
0.7819910347E-01  0.2299306183E+03         3        41
0.7789909840E-01  0.2298905945E+03         3        42
0.7769910246E-01  0.2298405914E+03         3        43
0.7739909738E-01  0.2298105927E+03         3        44
0.7719910145E-01  0.2297606354E+03         3        45
0.7699909806E-01  0.2297206116E+03         3        46
0.7659909874E-01  0.2296406097E+03         3        47
0.7629910111E-01  0.2295906372E+03         3        48
0.7609909773E-01  0.2295606232E+03         3        49
0.7589910179E-01  0.2295306244E+03         3        50
0.7579910010E-01  0.2295005951E+03         3        51
0.7559909672E-01  0.2294606171E+03         3        52
0.7539910078E-01  0.2294306183E+03         3        53
0.7519909739E-01  0.2293905182E+03         3        54
0.7499919087E-01  0.2293504791E+03         3        55
0.7469920069E-01  0.2293105164E+03         3        56
0.7449919730E-01  0.2292604980E+03         3        57
0.7429920137E-01  0.2292304993E+03         3        58
0.7399919629E-01  0.2292105103E+03         3        59
0.7369919121E-01  0.2291605377E+03         3        60
0.7339920104E-01  0.2291204987E+03         3        61
0.7319919765E-01  0.2290904999E+03         3        62
0.7299920171E-01  0.2290704956E+03         3        63
0.7279919833E-01  0.2290605164E+03         3        64
0.7249920070E-01  0.2290404968E+03         3        65
0.7239919901E-01  0.2290305176E+03         3        66
0.7219920307E-01  0.2290205078E+03         3        67
0.7199919969E-01  0.2290005188E+03         3        68
0.7179919630E-01  0.2289705353E+03         3        69
0.7149919868E-01  0.2289305115E+03         3        70
0.7129920274E-01  0.2288905182E+03         3        71
0.7109919935E-01  0.2288505249E+03         3        72
0.7089920342E-01  0.2288105164E+03         3        73
0.7069920003E-01  0.2287805176E+03         3        74
0.7049919665E-01  0.2287405243E+03         3        75
0.7029920071E-01  0.2287105103E+03         3        76
0.7019919902E-01  0.2286705170E+03         3        77
0.6999920309E-01  0.2286405182E+03         3        78
0.6979919970E-01  0.2286005096E+03         3        79
0.6969919801E-01  0.2285505219E+03         3        80
0.6949920952E-01  0.2285005188E+03         3        81
0.6929919869E-01  0.2284505005E+03         3        82
0.6909920275E-01  0.2283905182E+03         3        83
0.6889919937E-01  0.2283305359E+03         3        84
0.6869920343E-01  0.2282705078E+03         3        85
0.6849920005E-01  0.2282105255E+03         3        86
0.6839919835E-01  0.2281504974E+03         3        87
0.6809920818E-01  0.2280805206E+03         3        88
0.6789919734E-01  0.2280005188E+03         3        89
0.6769920141E-01  0.2278704987E+03         3        90
0.6739919633E-01  0.2277205200E+03         3        91
0.6729920208E-01  0.2276204987E+03         3        92
0.6709919870E-01  0.2275205078E+03         3        93
0.6689920276E-01  0.2274305115E+03         3        94
0.6679920107E-01  0.2273205261E+03         3        95
0.6659919769E-01  0.2272205200E+03         3        96
0.6639920175E-01  0.2271204224E+03         3        97
0.6619919837E-01  0.2270304108E+03         3        98
0.6609919667E-01  0.2269404144E+03         3        99
0.6589919329E-01  0.2268303833E+03         3       100
0.6569918990E-01  0.2267104034E+03         3       101
0.6549920142E-01  0.2266004028E+03         3       102
0.6529919803E-01  0.2265104218E+03         3       103
0.6519919634E-01  0.2264204102E+03         3       104
0.6499920040E-01  0.2263104095E+03         3       105
0.6479919702E-01  0.2262104034E+03         3       106
0.6459920108E-01  0.2261204224E+03         3       107
0.6449919939E-01  0.2260304108E+03         3       108
0.6429920346E-01  0.2259304047E+03         3       109
0.6409920007E-01  0.2258204193E+03         3       110
0.6389919668E-01  0.2256304016E+03         3       111
0.6359919906E-01  0.2254304199E+03         3       112
0.6329920143E-01  0.2252404175E+03         3       113
0.6309919804E-01  0.2250504303E+03         3       114
0.6279920042E-01  0.2248504181E+03         3       115
0.6249919906E-01  0.2246604156E+03         3       116
0.6219920143E-01  0.2244704132E+03         3       117
0.6199920177E-01  0.2242803955E+03         3       118
0.6169920042E-01  0.2240903931E+03         3       119
0.6139919907E-01  0.2239004059E+03         3       120
0.6119919941E-01  0.2237104187E+03         3       121
0.6089920178E-01  0.2234904327E+03         3       122
0.6059920043E-01  0.2233204346E+03         3       123
0.6039920077E-01  0.2231304169E+03         3       124
0.6019920111E-01  0.2229904327E+03         3       125
0.5999920145E-01  0.2228404236E+03         3       126
0.5979920551E-01  0.2226804352E+03         3       127
0.5959919840E-01  0.2225204163E+03         3       128
0.5919920281E-01  0.2222503967E+03         3       129
0.5899919942E-01  0.2220404358E+03         3       130
0.5869919807E-01  0.2218604126E+03         3       131
0.5839920044E-01  0.2216403961E+03         3       132
0.5809919909E-01  0.2213804169E+03         3       133
0.5779919773E-01  0.2211502991E+03         3       134
0.5739919841E-01  0.2208703003E+03         3       135
0.5709920079E-01  0.2205702972E+03         3       136
0.5679919943E-01  0.2202503204E+03         3       137
0.5649920180E-01  0.2199703217E+03         3       138
0.5619920045E-01  0.2196703033E+03         3       139
0.5579920113E-01  0.2193403015E+03         3       140
0.5549919978E-01  0.2190003204E+03         3       141
0.5519919470E-01  0.2187102966E+03         3       142
0.5489920080E-01  0.2184203033E+03         3       143
0.5459919944E-01  0.2181303101E+03         3       144
0.5429920182E-01  0.2178403320E+03         3       145
0.5399920046E-01  0.2175503082E+03         3       146
0.5369920284E-01  0.2172603302E+03         3       147
0.5339920148E-01  0.2169703064E+03         3       148
0.5319920182E-01  0.2166903076E+03         3       149
0.5299919844E-01  0.2164203339E+03         3       150
0.5269920081E-01  0.2161603088E+03         3       151
0.5249920115E-01  0.2158603058E+03         3       152
0.5219919607E-01  0.2155702972E+03         3       153
0.5199920014E-01  0.2152703094E+03         3       154
0.5169919878E-01  0.2149803162E+03         3       155
0.5149919912E-01  0.2146803131E+03         3       156
0.5129919946E-01  0.2143803101E+03         3       157
0.5099920183E-01  0.2140303192E+03         3       158
0.5079919845E-01  0.2136701965E+03         3       159
0.5049920082E-01  0.2133202209E+03         3       160
0.5019920319E-01  0.2129602203E+03         3       161
0.4999919981E-01  0.2126002197E+03         3       162
0.4969919845E-01  0.2122201996E+03         3       163
0.4949919879E-01  0.2118202209E+03         3       164
0.4929919913E-01  0.2114402161E+03         3       165
0.4899920151E-01  0.2110702057E+03         3       166
0.4879920185E-01  0.2107002106E+03         3       167
0.4849920049E-01  0.2103002167E+03         3       168
0.4829920456E-01  0.2098902130E+03         3       169
0.4809919745E-01  0.2094801941E+03         3       170
0.4789919779E-01  0.2090802002E+03         3       171
0.4769920558E-01  0.2086702118E+03         3       172
0.4739919677E-01  0.2082602081E+03         3       173
0.4729919508E-01  0.2078601837E+03         3       174
0.4709919915E-01  0.2074502106E+03         3       175
0.4689919949E-01  0.2070102234E+03         3       176
0.4679919779E-01  0.2065802002E+03         3       177
0.4659920186E-01  0.2061502228E+03         3       178
0.4639919847E-01  0.2057100983E+03         3       179
0.4629920051E-01  0.2052901001E+03         3       180
0.4609920084E-01  0.2049001160E+03         3       181
0.4599919543E-01  0.2045100861E+03         3       182
0.4579920322E-01  0.2040901184E+03         3       183
0.4569920152E-01  0.2036701202E+03         3       184
0.4549919814E-01  0.2032501068E+03         3       185
0.4539920017E-01  0.2028300934E+03         3       186
0.4529919848E-01  0.2024101105E+03         3       187
0.4519920051E-01  0.2019900970E+03         3       188
0.4509920254E-01  0.2015701141E+03         3       189
0.4499920085E-01  0.2011000977E+03         3       190
0.4489919543E-01  0.2006401215E+03         3       191
0.4479919747E-01  0.2001800995E+03         3       192
0.4469919950E-01  0.1997501373E+03         3       193
0.4459919780E-01  0.1993301086E+03         3       194
0.4449919984E-01  0.1988901215E+03         3       195
0.4449920356E-01  0.1984401093E+03         3       196
0.4449919984E-01  0.1979801025E+03         3       197