 ASGS cs:20190510000000 cy: ASGS hindcast    ! 32 CHARACTER ALPHANUMERIC RUN DESCRIPTION
 30.0 day hindcast run        ! 24 CHARACTER ALPANUMERIC RUN IDENTIFICATION
 1                   ! NFOVER - NONFATAL ERROR OVERRIDE OPTION
 0                   ! NABOUT - ABREVIATED OUTPUT OPTION PARAMETER
 -1000                 ! NSCREEN - UNIT 6 OUTPUT OPTION PARAMETER
 0              ! IHOT - HOT START PARAMETER
 2                   ! ICS - COORDINATE SYSTEM SELECTION PARAMETER
 0                   ! IM - MODEL SELECTION PARAMETER 
 1                   ! NOLIBF - BOTTOM FRICTION TERM SELECTION PARAMETER
 2                   ! NOLIFA - FINITE AMPLITUDE TERM SELECTION PARAMETER
 0                   ! NOLICA - SPATIAL DERIVATIVE CONVECTIVE SELECTION PARAMETER
 0                   ! NOLICAT - TIME DERIVATIVE CONVECTIVE TERM SELECTION PARAMETER
 7                   ! NWP - VARIABLE BOTTOM FRICTION AND LATERAL VISCOSITY OPTION PARAMETER
surface_submergence_state
surface_directional_effective_roughness_length
surface_canopy_coefficient
mannings_n_at_sea_floor
sea_surface_height_above_geoid
primitive_weighting_in_continuity_equation
average_horizontal_eddy_viscosity_in_sea_water_wrt_depth
 1                   ! NCOR - VARIABLE CORIOLIS IN SPACE OPTION PARAMETER
 1                   ! NTIP - TIDAL POTENTIAL OPTION PARAMETER
 0               ! NWS - WIND STRESS AND BAROMETRIC PRESSURE OPTION PARAMETER
 1                   ! NRAMP - RAMP FUNCTION OPTION
 9.81                ! G - ACCELERATION DUE TO GRAVITY - DETERMINES UNITS
 -3.0                ! TAU0 - WEIGHTING FACTOR IN GWCE
 1.0                ! DT - TIME STEP (IN SECONDS)
 0.00                ! STATIM - STARTING TIME (IN DAYS)
 0.00                ! REFTIM - REFERENCE TIME (IN DAYS)
 30.0             ! RNDAY - TOTAL LENGTH OF SIMULATION (IN DAYS)
 10.0                ! DRAMP - DURATION OF RAMP FUNCTION (IN DAYS)
 0.35 0.30 0.35      ! TIME WEIGHTING FACTORS FOR THE GWCE EQUATION
 0.10 0 0 0.01       ! H0, NODEDRYMIN, NODEWETMIN, VELMIN
 265.5 29.0          ! SLAM0,SFEA0 - CENTER OF CPP PROJECTION (NOT USED IF ICS=1, NTIP=0, NCOR=0)
 0.0 2.0 10 1.33333  !  FFACTOR,HBREAK,FTHETA,FGAMMA
 20.0                ! ESL - LATERAL EDDY VISCOSITY COEFFICIENT; IGNORED IF NWP =1
 0.0                 ! CORI - CORIOLIS PARAMETER - IGNORED IF NCOR = 1
 7                      ! NTIF - TOTAL NUMBER OF TIDAL POTENTIAL CONSTITUENTS BE
 K1                     ! ALPHANUMERIC DESCRIPTION OF TIDAL POTENTIAL FORCING DA
 0.141565  0.000072921158358  0.736  0.97404  128.78
 O1                     ! ALPHANUMERIC DESCRIPTION OF TIDAL POTENTIAL FORCING DA
 0.100514  0.000067597744151  0.695  0.95778  97.01
 M2                     ! ALPHANUMERIC DESCRIPTION OF TIDAL POTENTIAL FORCING DA
 0.242334  0.000140518902509  0.693  1.01289  221.63
 S2                     ! ALPHANUMERIC DESCRIPTION OF TIDAL POTENTIAL FORCING DA
 0.112841  0.000145444104333  0.693  1.00000  0.00
 N2                     ! ALPHANUMERIC DESCRIPTION OF TIDAL POTENTIAL FORCING DA
 0.046398  0.000137879699487  0.693  1.01289  256.76
 K2                     ! ALPHANUMERIC DESCRIPYION OF TIDAL POTENTIAL FORCING DATA
 0.030704  0.000145842317201  0.693  0.91881  77.87
 Q1                     ! ALPHANUMERIC DESCRIPTION OF TIDAL POTENTIAL FORCING DATA
 0.019256  0.000064958541129  0.695  0.95778  132.14
 7                      ! NBFR - TOTAL NUMBER OF FORCING FREQUENCIES ON OPEN BOU
 K1                     ! ALPHANUMERIC DATA FOR OPEN OCEAN FORCING              
 0.000072921158358  0.97404  128.78 
 O1                     ! ALPHANUMERIC DATA FOR OPEN OCEAN FORCING              
 0.000067597744151  0.95778  97.01 
 M2                     ! ALPHANUMERIC DESCRIPTION OF OPEN BOUNDARY FORCING DATA
 0.000140518902509  1.01289  221.63 
 S2                     ! ALPHANUMERIC DESCRIPTION OF OPEN BOUNDARY FORCING DATA
 0.000145444104333  1.00000  0.00
 N2                     ! ALPHANUMERIC DESCRIPTION OF OPEN BOUNDARY FORCING DATA
 0.000137879699487  1.01289  256.76
 K2                     ! ALPHANUMERIC DESCRIPTION OF OPEN BOUNDARY FORCING DATA
 0.000145842317201  0.91881  77.87
 Q1                     ! ALPHANUMERIC DESCRIPTION OF OPEN BOUNDARY FORCING DATA
 0.000064958541129  0.95778  132.14
 K1                     ! ALPHA NUMERIC DESCRIPTION OF ELEVATION BOUNDARY FORCIN
     0.1013   243.05    207 0
     0.1010   242.96    208 0
     0.1008   242.88    232 0
     0.1006   242.79    251 0
     0.1004   242.71    296 0
     0.1001   242.62    331 0
     0.0999   242.54    383 0
     0.0997   242.46    428 0
     0.0995   242.37    476 0
     0.0992   242.29    524 0
     0.0990   242.20    584 0
     0.0988   242.12    657 0
     0.0986   242.04    727 0
     0.0983   241.94    804 0
     0.0981   241.85    884 0
     0.0978   241.76    964 0
     0.0976   241.67   1045 0
     0.0973   241.56   1140 0
     0.0970   241.46   1233 0
     0.0967   241.35   1351 0
     0.0964   241.25   1474 0
     0.0961   241.14   1598 0
     0.0958   241.03   1726 0
     0.0956   240.92   1861 0
     0.0953   240.82   2001 0
     0.0950   240.72   2120 0
     0.0948   240.63   2247 0
     0.0945   240.53   2362 0
     0.0943   240.43   2473 0
     0.0940   240.32   2602 0
     0.0938   240.21   2715 0
     0.0935   240.10   2867 0
     0.0932   239.99   3042 0
     0.0929   239.90   3192 0
     0.0927   239.80   3325 0
     0.0924   239.71   3458 0
     0.0921   239.62   3598 0
     0.0919   239.52   3766 0
     0.0916   239.43   3910 0
     0.0913   239.30   4110 0
     0.0909   239.17   4293 0
     0.0906   239.05   4473 0
     0.0902   238.93   4661 0
     0.0900   238.82   4833 0
     0.0896   238.69   5012 0
     0.0893   238.57   5201 0
     0.0888   238.38   5495 0
     0.0884   238.23   5794 0
     0.0882   238.14   6086 0
     0.0880   238.05   6364 0
     0.0879   237.97   6663 0
     0.0877   237.88   7015 0
     0.0875   237.79   7352 0
     0.0872   237.68   7787 0
     0.0870   237.57   8179 0
     0.0867   237.44   8631 0
     0.0865   237.32   9206 0
     0.0863   237.22   9780 0
     0.0861   237.13  10360 0
     0.0858   236.99  11317 0
     0.0855   236.84  12356 0
     0.0853   236.76  12955 0
     0.0851   236.68  13487 0
     0.0849   236.56  14293 0
     0.0848   236.44  15089 0
     0.0846   236.35  15731 0
     0.0845   236.26  16276 0
     0.0843   236.14  16922 0
     0.0841   236.01  17661 0
     0.0839   235.85  18409 0
     0.0837   235.70  19064 0
     0.0835   235.56  19703 0
     0.0833   235.42  20318 0
     0.0831   235.29  20860 0
     0.0829   235.15  21335 0
     0.0827   235.02  21813 0
     0.0825   234.88  22268 0
     0.0823   234.75  22690 0
     0.0821   234.61  23074 0
     0.0819   234.48  23417 0
     0.0817   234.34  23742 0
     0.0814   234.19  24068 0
     0.0812   234.04  24395 0
     0.0809   233.88  24689 0
     0.0807   233.72  24982 0
     0.0804   233.55  25260 0
     0.0801   233.39  25502 0
     0.0797   233.19  25782 0
     0.0793   232.99  26050 0
     0.0789   232.71  26303 0
     0.0785   232.43  26543 0
     0.0782   232.23  26710 0
     0.0779   232.02  26868 0
     0.0776   231.83  27026 0
     0.0772   231.61  27233 0
     0.0769   231.38  27479 0
     0.0765   231.17  27700 0
     0.0762   230.97  27943 0
     0.0759   230.76  28159 0
     0.0756   230.55  28367 0
     0.0752   230.32  28600 0
     0.0749   230.10  28840 0
     0.0746   229.91  29061 0
     0.0743   229.73  29272 0
     0.0739   229.49  29513 0
     0.0737   229.29  29724 0
     0.0734   229.08  29921 0
     0.0732   228.87  30135 0
     0.0729   228.65  30373 0
     0.0726   228.43  30628 0
     0.0722   228.05  31040 0
     0.0718   227.65  31979 0
     0.0714   227.27  33367 0
     0.0710   226.89  34385 0
     0.0705   226.50  35203 0
     0.0701   226.11  35962 0
     0.0697   225.70  36750 0
     0.0693   225.29  37589 0
     0.0689   224.88  38483 0
     0.0685   224.50  39447 0
     0.0681   224.12  40545 0
     0.0677   223.69  41717 0
     0.0674   223.33  42787 0
     0.0670   222.92  43969 0
     0.0667   222.61  45073 0
     0.0664   222.30  46013 0
     0.0662   221.97  46915 0
     0.0659   221.64  48023 0
     0.0655   221.11  49604 0
     0.0651   220.65  51721 0
     0.0648   220.23  53381 0
     0.0644   219.72  54812 0
     0.0640   219.18  56099 0
     0.0636   218.72  57187 0
     0.0632   218.16  58517 0
     0.0628   217.59  59888 0
     0.0623   216.99  61905 0
     0.0619   216.43  63684 0
     0.0615   215.80  65435 0
     0.0611   215.10  67773 0
     0.0606   214.48  70426 0
     0.0603   213.93  72747 0
     0.0599   213.37  74725 0
     0.0595   212.80  76901 0
     0.0592   212.22  79509 0
     0.0588   211.64  82386 0
     0.0585   211.06  84959 0
     0.0582   210.48  87572 0
     0.0579   209.87  90084 0
     0.0576   209.31  92054 0
     0.0574   208.76  94154 0
     0.0571   208.23  96063 0
     0.0569   207.70  97831 0
     0.0566   207.17  99870 0
     0.0564   206.62 102353 0
     0.0561   206.07 104927 0
     0.0559   205.51 107438 0
     0.0557   204.84 110218 0
     0.0554   204.16 113226 0
     0.0552   203.49 116268 0
     0.0550   202.82 119410 0
     0.0547   202.14 122515 0
     0.0545   201.47 125828 0
     0.0543   200.80 129173 0
     0.0541   200.11 132292 0
     0.0540   199.38 135171 0
     0.0538   198.65 137790 0
     0.0536   197.95 140266 0
     0.0535   197.26 142276 0
     0.0533   196.55 144154 0
     0.0532   195.82 146281 0
     0.0531   195.09 148058 0
     0.0530   194.40 149839 0
     0.0529   193.73 151700 0
     0.0529   193.05 153291 0
     0.0528   192.38 154581 0
     0.0527   191.71 155623 0
     0.0527   191.04 156606 0
     0.0526   190.37 157663 0
     0.0526   189.69 158825 0
     0.0526   189.02 160068 0
     0.0526   188.37 161382 0
     0.0526   187.75 162719 0
     0.0526   187.14 164388 0
     0.0526   186.52 167287 0
     0.0526   185.91 172589 0
     0.0527   185.29 179838 0
     0.0528   184.68 187176 0
     0.0528   184.07 192012 0
     0.0529   183.41 197151 0
     0.0530   182.78 204745 0
     0.0531   182.15 207064 0
     0.0532   181.52 207682 0
     0.0533   180.90 208233 0
     0.0534   180.29 208840 0
     0.0536   179.70 209443 0
     0.0537   179.12 210052 0
     0.0538   178.62 210615 0
     0.0539   178.11 211225 0
     0.0541   177.60 211841 0
     0.0542   177.06 212658 0
     0.0544   176.53 213509 0
     0.0545   176.05 214172 0
     0.0547   175.59 214710 0
     0.0549   175.13 215237 0
     0.0551   174.72 215662 0
     0.0552   174.31 216086 0
     0.0553   173.91 216550 0
     0.0555   173.54 217096 0
     0.0557   173.17 217691 0
     0.0558   172.79 218056 0
     0.0560   172.42 218466 0
     0.0562   172.05 218943 0
     0.0564   171.66 219614 0
     0.0566   171.30 220311 0
     0.0568   170.94 220864 0
     0.0570   170.58 221348 0
     0.0572   170.22 221745 0
     0.0574   169.86 222073 0
     0.0576   169.52 222377 0
     0.0578   169.20 222697 0
     0.0580   168.83 223020 0
     0.0583   168.47 223338 0
     0.0585   168.11 223688 0
     0.0588   167.77 224053 0
     0.0590   167.45 224417 0
     0.0593   167.13 225023 0
     0.0595   166.85 225622 0
     0.0598   166.56 226194 0
     0.0600   166.30 226754 0
     0.0602   166.05 227324 0
     0.0604   165.80 227862 0
     0.0606   165.55 228530 0
     0.0609   165.32 229012 0
     0.0611   165.11 229509 0
     0.0614   164.86 230076 0
     0.0616   164.62 230795 0
     0.0618   164.44 231464 0
     0.0620   164.26 231960 0
     0.0622   164.10 232402 0
     0.0624   163.95 232886 0
     0.0626   163.81 233453 0
     0.0627   163.70 234137 0
     0.0629   163.59 234915 0
     0.0630   163.48 235987 0
     0.0632   163.40 236919 0
     0.0634   163.33 237805 0
     0.0636   163.28 239167 0
     0.0638   163.24 240418 0
     0.0640   163.20 241318 0
     0.0642   163.17 241896 0
     0.0644   163.13 242370 0
     0.0646   163.09 242828 0
     0.0648   163.05 243288 0
     0.0651   163.01 243831 0
     0.0653   162.97 244320 0
     0.0654   162.95 244655 0
     0.0656   162.93 245018 0
     0.0659   162.66 245377 0
     0.0664   162.15 245773 0
     0.0667   161.77 246106 0
     0.0671   161.41 246443 0
     0.0670   160.33 246803 0
     0.0630   152.78 247211 0
     0.0605   145.77 247592 0
     0.0591   138.76 247870 0
     0.0586   131.28 248170 0
     0.0596   126.18 248476 0
     0.0607   123.83 248749 0
     0.0620   121.21 249086 0
     0.0634   118.77 249460 0
     0.0650   116.30 249879 0
     0.0666   113.20 250347 0
     0.0684   109.46 250830 0
     0.0696   107.32 251123 0
     0.0710   105.27 251385 0
     0.0724   103.29 251665 0
     0.0738   101.38 251981 0
     0.0754    99.00 252335 0
     0.0770    96.52 252694 0
     0.0788    94.14 253021 0
     0.0807    91.87 253306 0
     0.0827    89.83 253600 0
     0.0846    87.93 253936 0
     0.0866    86.21 254088 0
     0.0878    84.80 254225 0
     0.0890    83.44 254363 0
     0.0903    81.99 254451 0
     0.0916    80.56 254496 0
     0.0925    79.57 254525 0
     0.0933    78.67 254543 0
     0.0944    77.34 254562 0
 O1
     0.0860   231.62    207 0
     0.0858   231.58    208 0
     0.0857   231.55    232 0
     0.0855   231.51    251 0
     0.0853   231.48    296 0
     0.0851   231.44    331 0
     0.0850   231.40    383 0
     0.0848   231.37    428 0
     0.0846   231.33    476 0
     0.0845   231.30    524 0
     0.0843   231.26    584 0
     0.0841   231.23    657 0
     0.0840   231.19    727 0
     0.0838   231.15    804 0
     0.0836   231.11    884 0
     0.0834   231.07    964 0
     0.0832   231.03   1045 0
     0.0830   230.99   1140 0
     0.0828   230.94   1233 0
     0.0826   230.89   1351 0
     0.0824   230.84   1474 0
     0.0821   230.78   1598 0
     0.0819   230.73   1726 0
     0.0817   230.68   1861 0
     0.0815   230.63   2001 0
     0.0813   230.59   2120 0
     0.0811   230.54   2247 0
     0.0809   230.49   2362 0
     0.0807   230.45   2473 0
     0.0805   230.40   2602 0
     0.0803   230.34   2715 0
     0.0801   230.29   2867 0
     0.0799   230.24   3042 0
     0.0797   230.20   3192 0
     0.0795   230.16   3325 0
     0.0793   230.13   3458 0
     0.0791   230.10   3598 0
     0.0789   230.06   3766 0
     0.0787   230.03   3910 0
     0.0784   229.98   4110 0
     0.0782   229.93   4293 0
     0.0779   229.89   4473 0
     0.0777   229.84   4661 0
     0.0774   229.81   4833 0
     0.0772   229.76   5012 0
     0.0770   229.72   5201 0
     0.0766   229.64   5495 0
     0.0763   229.59   5794 0
     0.0761   229.56   6086 0
     0.0759   229.53   6364 0
     0.0758   229.50   6663 0
     0.0756   229.46   7015 0
     0.0754   229.43   7352 0
     0.0752   229.39   7787 0
     0.0750   229.35   8179 0
     0.0747   229.31   8631 0
     0.0745   229.26   9206 0
     0.0743   229.23   9780 0
     0.0740   229.21  10360 0
     0.0737   229.16  11317 0
     0.0734   229.12  12356 0
     0.0732   229.09  12955 0
     0.0730   229.07  13487 0
     0.0728   229.06  14293 0
     0.0725   229.04  15089 0
     0.0724   229.03  15731 0
     0.0722   229.02  16276 0
     0.0720   229.00  16922 0
     0.0718   228.97  17661 0
     0.0715   228.93  18409 0
     0.0713   228.89  19064 0
     0.0711   228.85  19703 0
     0.0709   228.81  20318 0
     0.0707   228.78  20860 0
     0.0705   228.74  21335 0
     0.0703   228.71  21813 0
     0.0702   228.67  22268 0
     0.0700   228.64  22690 0
     0.0698   228.60  23074 0
     0.0697   228.55  23417 0
     0.0695   228.50  23742 0
     0.0693   228.45  24068 0
     0.0691   228.39  24395 0
     0.0689   228.33  24689 0
     0.0687   228.27  24982 0
     0.0685   228.21  25260 0
     0.0684   228.15  25502 0
     0.0681   228.08  25782 0
     0.0679   228.00  26050 0
     0.0677   227.87  26303 0
     0.0674   227.72  26543 0
     0.0673   227.62  26710 0
     0.0671   227.52  26868 0
     0.0669   227.43  27026 0
     0.0668   227.32  27233 0
     0.0666   227.22  27479 0
     0.0664   227.12  27700 0
     0.0662   227.03  27943 0
     0.0661   226.94  28159 0
     0.0659   226.83  28367 0
     0.0657   226.71  28600 0
     0.0655   226.60  28840 0
     0.0653   226.51  29061 0
     0.0652   226.42  29272 0
     0.0650   226.31  29513 0
     0.0648   226.21  29724 0
     0.0646   226.12  29921 0
     0.0645   226.03  30135 0
     0.0643   225.93  30373 0
     0.0641   225.82  30628 0
     0.0639   225.63  31040 0
     0.0636   225.43  31979 0
     0.0633   225.24  33367 0
     0.0631   225.05  34385 0
     0.0628   224.85  35203 0
     0.0625   224.66  35962 0
     0.0622   224.47  36750 0
     0.0620   224.28  37589 0
     0.0617   224.09  38483 0
     0.0614   223.90  39447 0
     0.0612   223.71  40545 0
     0.0609   223.49  41717 0
     0.0606   223.32  42787 0
     0.0604   223.13  43969 0
     0.0602   222.99  45073 0
     0.0600   222.84  46013 0
     0.0598   222.68  46915 0
     0.0596   222.52  48023 0
     0.0592   222.25  49604 0
     0.0590   222.04  51721 0
     0.0587   221.86  53381 0
     0.0584   221.64  54812 0
     0.0581   221.38  56099 0
     0.0578   221.15  57187 0
     0.0574   220.87  58517 0
     0.0571   220.57  59888 0
     0.0568   220.25  61905 0
     0.0565   219.97  63684 0
     0.0562   219.67  65435 0
     0.0558   219.34  67773 0
     0.0555   219.00  70426 0
     0.0552   218.71  72747 0
     0.0549   218.42  74725 0
     0.0546   218.13  76901 0
     0.0543   217.84  79509 0
     0.0540   217.55  82386 0
     0.0537   217.26  84959 0
     0.0534   216.97  87572 0
     0.0532   216.69  90084 0
     0.0530   216.42  92054 0
     0.0527   216.16  94154 0
     0.0525   215.86  96063 0
     0.0522   215.57  97831 0
     0.0520   215.27  99870 0
     0.0517   214.98 102353 0
     0.0515   214.68 104927 0
     0.0513   214.38 107438 0
     0.0510   214.03 110218 0
     0.0508   213.67 113226 0
     0.0505   213.32 116268 0
     0.0502   212.96 119410 0
     0.0500   212.60 122515 0
     0.0497   212.22 125828 0
     0.0495   211.82 129173 0
     0.0493   211.44 132292 0
     0.0490   211.07 135171 0
     0.0488   210.70 137790 0
     0.0485   210.30 140266 0
     0.0483   209.89 142276 0
     0.0481   209.48 144154 0
     0.0479   209.08 146281 0
     0.0477   208.67 148058 0
     0.0474   208.26 149839 0
     0.0473   207.86 151700 0
     0.0471   207.45 153291 0
     0.0469   207.01 154581 0
     0.0468   206.58 155623 0
     0.0466   206.15 156606 0
     0.0464   205.71 157663 0
     0.0463   205.29 158825 0
     0.0461   204.90 160068 0
     0.0460   204.51 161382 0
     0.0458   204.09 162719 0
     0.0457   203.67 164388 0
     0.0455   203.25 167287 0
     0.0454   202.83 172589 0
     0.0453   202.41 179838 0
     0.0452   201.99 187176 0
     0.0451   201.57 192012 0
     0.0450   201.10 197151 0
     0.0449   200.64 204745 0
     0.0448   200.18 207064 0
     0.0447   199.75 207682 0
     0.0446   199.33 208233 0
     0.0445   198.89 208840 0
     0.0445   198.44 209443 0
     0.0445   197.98 210052 0
     0.0444   197.56 210615 0
     0.0444   197.13 211225 0
     0.0443   196.71 211841 0
     0.0443   196.29 212658 0
     0.0443   195.87 213509 0
     0.0443   195.48 214172 0
     0.0443   195.10 214710 0
     0.0443   194.71 215237 0
     0.0443   194.37 215662 0
     0.0443   194.03 216086 0
     0.0443   193.69 216550 0
     0.0443   193.35 217096 0
     0.0443   193.01 217691 0
     0.0444   192.67 218056 0
     0.0444   192.33 218466 0
     0.0444   191.99 218943 0
     0.0445   191.65 219614 0
     0.0446   191.32 220311 0
     0.0446   191.00 220864 0
     0.0447   190.65 221348 0
     0.0448   190.29 221745 0
     0.0448   189.93 222073 0
     0.0449   189.63 222377 0
     0.0450   189.34 222697 0
     0.0451   189.01 223020 0
     0.0452   188.65 223338 0
     0.0453   188.28 223688 0
     0.0455   187.98 224053 0
     0.0456   187.69 224417 0
     0.0457   187.40 225023 0
     0.0459   187.12 225622 0
     0.0460   186.84 226194 0
     0.0462   186.62 226754 0
     0.0464   186.40 227324 0
     0.0466   186.19 227862 0
     0.0468   185.94 228530 0
     0.0470   185.71 229012 0
     0.0472   185.47 229509 0
     0.0475   185.17 230076 0
     0.0478   184.91 230795 0
     0.0480   184.73 231464 0
     0.0482   184.56 231960 0
     0.0485   184.40 232402 0
     0.0487   184.26 232886 0
     0.0490   184.12 233453 0
     0.0493   184.01 234137 0
     0.0495   183.91 234915 0
     0.0499   183.78 235987 0
     0.0503   183.62 236919 0
     0.0506   183.47 237805 0
     0.0510   183.29 239167 0
     0.0514   183.10 240418 0
     0.0517   182.92 241318 0
     0.0521   182.76 241896 0
     0.0525   182.61 242370 0
     0.0529   182.43 242828 0
     0.0532   182.23 243288 0
     0.0536   182.03 243831 0
     0.0538   181.74 244320 0
     0.0539   181.58 244655 0
     0.0540   181.40 245018 0
     0.0536   181.58 245377 0
     0.0529   182.13 245773 0
     0.0523   182.57 246106 0
     0.0517   182.99 246443 0
     0.0500   183.65 246803 0
     0.0394   186.45 247211 0
     0.0305   190.30 247592 0
     0.0225   196.63 247870 0
     0.0147   210.31 248170 0
     0.0101   232.06 248476 0
     0.0086   250.98 248749 0
     0.0083   278.02 249086 0
     0.0098   300.66 249460 0
     0.0125   316.54 249879 0
     0.0166   324.89 250347 0
     0.0219   328.58 250830 0
     0.0251   330.04 251123 0
     0.0283   331.17 251385 0
     0.0315   332.07 251665 0
     0.0347   332.81 251981 0
     0.0383   332.75 252335 0
     0.0421   332.46 252694 0
     0.0458   332.23 253021 0
     0.0496   332.02 253306 0
     0.0532   331.86 253600 0
     0.0567   331.72 253936 0
     0.0600   331.60 254088 0
     0.0624   331.47 254225 0
     0.0647   331.35 254363 0
     0.0672   331.22 254451 0
     0.0696   331.10 254496 0
     0.0713   331.01 254525 0
     0.0728   330.93 254543 0
     0.0751   330.81 254562 0
 M2
     0.5396   223.40    207 0
     0.5364   223.29    208 0
     0.5331   223.17    232 0
     0.5299   223.06    251 0
     0.5267   222.95    296 0
     0.5234   222.83    331 0
     0.5202   222.72    383 0
     0.5169   222.61    428 0
     0.5137   222.49    476 0
     0.5105   222.38    524 0
     0.5073   222.27    584 0
     0.5041   222.16    657 0
     0.5010   222.05    727 0
     0.4974   221.92    804 0
     0.4938   221.80    884 0
     0.4903   221.68    964 0
     0.4867   221.55   1045 0
     0.4827   221.41   1140 0
     0.4785   221.29   1233 0
     0.4744   221.17   1351 0
     0.4702   221.05   1474 0
     0.4661   220.93   1598 0
     0.4619   220.80   1726 0
     0.4578   220.68   1861 0
     0.4536   220.55   2001 0
     0.4501   220.43   2120 0
     0.4465   220.32   2247 0
     0.4429   220.20   2362 0
     0.4393   220.08   2473 0
     0.4353   219.94   2602 0
     0.4312   219.80   2715 0
     0.4272   219.65   2867 0
     0.4231   219.51   3042 0
     0.4194   219.38   3192 0
     0.4157   219.25   3325 0
     0.4119   219.13   3458 0
     0.4082   219.00   3598 0
     0.4044   218.87   3766 0
     0.4007   218.73   3910 0
     0.3957   218.55   4110 0
     0.3907   218.37   4293 0
     0.3859   218.18   4473 0
     0.3813   218.00   4661 0
     0.3773   217.84   4833 0
     0.3726   217.65   5012 0
     0.3681   217.46   5201 0
     0.3608   217.14   5495 0
     0.3554   216.90   5794 0
     0.3521   216.79   6086 0
     0.3488   216.69   6364 0
     0.3456   216.58   6663 0
     0.3423   216.46   7015 0
     0.3389   216.34   7352 0
     0.3350   216.20   7787 0
     0.3311   216.05   8179 0
     0.3264   215.87   8631 0
     0.3216   215.70   9206 0
     0.3166   215.62   9780 0
     0.3115   215.53  10360 0
     0.3037   215.38  11317 0
     0.2960   215.23  12356 0
     0.2916   215.15  12955 0
     0.2875   215.09  13487 0
     0.2817   215.12  14293 0
     0.2759   215.15  15089 0
     0.2716   215.17  15731 0
     0.2672   215.19  16276 0
     0.2614   215.23  16922 0
     0.2561   215.31  17661 0
     0.2506   215.44  18409 0
     0.2451   215.57  19064 0
     0.2401   215.71  19703 0
     0.2350   215.84  20318 0
     0.2314   215.99  20860 0
     0.2281   216.15  21335 0
     0.2248   216.32  21813 0
     0.2215   216.49  22268 0
     0.2182   216.67  22690 0
     0.2149   216.86  23074 0
     0.2118   217.03  23417 0
     0.2087   217.21  23742 0
     0.2053   217.42  24068 0
     0.2018   217.63  24395 0
     0.1983   217.86  24689 0
     0.1948   218.10  24982 0
     0.1914   218.35  25260 0
     0.1880   218.61  25502 0
     0.1838   218.94  25782 0
     0.1797   219.29  26050 0
     0.1759   219.67  26303 0
     0.1721   220.07  26543 0
     0.1694   220.36  26710 0
     0.1667   220.66  26868 0
     0.1642   220.95  27026 0
     0.1617   221.33  27233 0
     0.1591   221.74  27479 0
     0.1568   222.12  27700 0
     0.1546   222.49  27943 0
     0.1524   222.88  28159 0
     0.1497   223.35  28367 0
     0.1466   223.89  28600 0
     0.1437   224.42  28840 0
     0.1412   224.89  29061 0
     0.1389   225.36  29272 0
     0.1358   226.01  29513 0
     0.1333   226.58  29724 0
     0.1307   227.17  29921 0
     0.1282   227.78  30135 0
     0.1256   228.45  30373 0
     0.1228   229.18  30628 0
     0.1182   230.47  31040 0
     0.1133   231.93  31979 0
     0.1087   233.48  33367 0
     0.1039   235.27  34385 0
     0.0992   237.23  35203 0
     0.0946   239.39  35962 0
     0.0904   241.79  36750 0
     0.0864   244.42  37589 0
     0.0825   247.30  38483 0
     0.0790   250.50  39447 0
     0.0758   254.00  40545 0
     0.0726   258.17  41717 0
     0.0704   261.84  42787 0
     0.0684   266.14  43969 0
     0.0672   269.47  45073 0
     0.0663   272.88  46013 0
     0.0657   276.22  46915 0
     0.0654   279.61  48023 0
     0.0653   285.11  49604 0
     0.0658   289.76  51721 0
     0.0666   294.00  53381 0
     0.0681   298.85  54812 0
     0.0701   303.69  56099 0
     0.0723   307.55  57187 0
     0.0753   311.91  58517 0
     0.0786   315.75  59888 0
     0.0824   319.38  61905 0
     0.0861   322.41  63684 0
     0.0905   325.39  65435 0
     0.0956   328.35  67773 0
     0.1001   330.48  70426 0
     0.1041   332.17  72747 0
     0.1082   333.73  74725 0
     0.1122   335.15  76901 0
     0.1164   336.47  79509 0
     0.1205   337.65  82386 0
     0.1246   338.72  84959 0
     0.1288   339.73  87572 0
     0.1328   340.63  90084 0
     0.1365   341.40  92054 0
     0.1402   342.13  94154 0
     0.1438   342.74  96063 0
     0.1474   343.32  97831 0
     0.1510   343.87  99870 0
     0.1545   344.34 102353 0
     0.1580   344.80 104927 0
     0.1616   345.23 107438 0
     0.1658   345.76 110218 0
     0.1700   346.26 113226 0
     0.1742   346.72 116268 0
     0.1783   347.16 119410 0
     0.1825   347.57 122515 0
     0.1866   347.94 125828 0
     0.1907   348.29 129173 0
     0.1948   348.61 132292 0
     0.1989   348.89 135171 0
     0.2030   349.17 137790 0
     0.2071   349.45 140266 0
     0.2111   349.73 142276 0
     0.2150   349.98 144154 0
     0.2189   350.18 146281 0
     0.2228   350.37 148058 0
     0.2266   350.58 149839 0
     0.2303   350.77 151700 0
     0.2339   350.92 153291 0
     0.2374   351.04 154581 0
     0.2410   351.15 155623 0
     0.2445   351.27 156606 0
     0.2480   351.39 157663 0
     0.2514   351.50 158825 0
     0.2548   351.62 160068 0
     0.2581   351.73 161382 0
     0.2614   351.84 162719 0
     0.2647   351.96 164388 0
     0.2679   352.06 167287 0
     0.2711   352.13 172589 0
     0.2742   352.21 179838 0
     0.2773   352.26 187176 0
     0.2805   352.30 192012 0
     0.2838   352.35 197151 0
     0.2871   352.43 204745 0
     0.2904   352.51 207064 0
     0.2936   352.56 207682 0
     0.2967   352.60 208233 0
     0.2999   352.62 208840 0
     0.3030   352.62 209443 0
     0.3061   352.62 210052 0
     0.3089   352.66 210615 0
     0.3116   352.70 211225 0
     0.3144   352.72 211841 0
     0.3170   352.72 212658 0
     0.3197   352.72 213509 0
     0.3223   352.72 214172 0
     0.3249   352.72 214710 0
     0.3275   352.71 215237 0
     0.3297   352.67 215662 0
     0.3319   352.64 216086 0
     0.3341   352.61 216550 0
     0.3363   352.57 217096 0
     0.3385   352.54 217691 0
     0.3406   352.50 218056 0
     0.3427   352.47 218466 0
     0.3447   352.43 218943 0
     0.3469   352.38 219614 0
     0.3489   352.31 220311 0
     0.3510   352.24 220864 0
     0.3530   352.19 221348 0
     0.3550   352.15 221745 0
     0.3569   352.11 222073 0
     0.3588   352.01 222377 0
     0.3606   351.90 222697 0
     0.3627   351.78 223020 0
     0.3646   351.65 223338 0
     0.3666   351.53 223688 0
     0.3686   351.41 224053 0
     0.3706   351.29 224417 0
     0.3725   351.17 225023 0
     0.3744   351.05 225622 0
     0.3763   350.93 226194 0
     0.3780   350.82 226754 0
     0.3796   350.71 227324 0
     0.3812   350.59 227862 0
     0.3831   350.39 228530 0
     0.3848   350.20 229012 0
     0.3866   350.02 229509 0
     0.3888   349.82 230076 0
     0.3909   349.61 230795 0
     0.3925   349.43 231464 0
     0.3942   349.25 231960 0
     0.3958   349.04 232402 0
     0.3976   348.82 232886 0
     0.3993   348.61 233453 0
     0.4010   348.43 234137 0
     0.4027   348.25 234915 0
     0.4045   348.03 235987 0
     0.4064   347.76 236919 0
     0.4082   347.49 237805 0
     0.4100   347.20 239167 0
     0.4118   346.89 240418 0
     0.4137   346.59 241318 0
     0.4154   346.28 241896 0
     0.4171   345.97 242370 0
     0.4189   345.63 242828 0
     0.4206   345.27 243288 0
     0.4223   344.91 243831 0
     0.4239   344.52 244320 0
     0.4247   344.30 244655 0
     0.4257   344.05 245018 0
     0.4269   343.78 245377 0
     0.4283   343.51 245773 0
     0.4293   343.31 246106 0
     0.4303   343.11 246443 0
     0.4325   343.06 246803 0
     0.4441   344.43 247211 0
     0.4541   345.52 247592 0
     0.4636   346.50 247870 0
     0.4735   347.48 248170 0
     0.4809   347.71 248476 0
     0.4849   347.60 248749 0
     0.4894   347.49 249086 0
     0.4938   347.38 249460 0
     0.4985   347.27 249879 0