SWAN+ADCIRC Run           ! 30 CHARACTER ALPHANUM RUN DESCRIPTION
Matthew on NCV9.99        ! 20 CHARACTER ALPANUMERIC RUN IDENTIFICATION
1 20.0 1 20 100.0         ! NFOVER NONFATA OVERRIDE,WARNING ELEV, FORT.69, KILL RUN ELEV
0                         ! NABOUT - ABREVIATED OUTPUT OPTION PARAMETER
100                       ! NSCREEN - UNIT 6 OUTPUT OPTION PARAMETER
0                         ! IHOT - HOT START
2                	  ! ICS - COORDINATE SYSTEM SELECTION PARAMETER
111112                    ! IM - MODEL SELECTION PARAMETER
1                	  ! NOLIBF - BOTTOM FRICTION TERM SELECTION PARAM
2                	  ! NOLIFA - FINITE AMPLITUDE TERM SELECTION PARAMETER
0                	  ! NOLICA - SPATIAL DERIVATIVE CONVECTIVE SELECTION PARAMETER
0                	  ! NOLICAT - TIME DERIVATIVE CONVECTIVE TERM SELECTION PARAMETER
5                	  ! NWP 
mannings_n_at_sea_floor
primitive_weighting_in_continuity_equation
surface_canopy_coefficient
surface_directional_effective_roughness_length
surface_submergence_state
1                         ! NCOR - VARIABLE CORIOLIS IN SPACE
1                	  ! NTIP - TIDAL POTENTIAL OPTION PARAMETER
0                	  ! NWS - WIND STRESS AND BAROMETRIC PRESSURE OPTION PARAMETER
1             	          ! NRAMP - RAMP FUNCTION OPTION
9.81             	  ! G - ACCELERATION DUE TO GRAVITY - DETERMINES UNITS
-3 	                  ! TAU0 - WEIGHTING FACTOR IN GWCE; original, 0.005
1.0 	                  ! DT - TIME STEP (IN SECONDS)
0.00   		          ! STATIM - STARTING TIME (IN DAYS)
0.00  	                  ! REFTIM - REFERENCE TIME (IN DAYS)
15.0    	          ! RNDAY - TOTAL LENGTH OF SIMULATION (IN DAYS)
6.0	                  ! DRAMP, DURATION OF RAMP FUNCTION (IN DAYS)
0.0 1.0 0.0               ! TIME WEIGHTING FACTORS FOR THE GWCE EQUATION
0.1 0 0 .01               ! H0 MINIMUM CUTOFF DEPTH, NODEDRYMIN, NODEWETRMP, VELMIN
-71.0 27.0       	  ! SLAM0,SFEA0 - CENTER OF CPP PROJECTION (NOT USED IF ICS=1, NTIP=0, NCOR=0)
0.000 1. 10. 0.33333      ! FFACTOR - BOTTOM FRICTION COEFFICIENT
50.0                      ! ESL - LATERAL EDDY VISCOSITY COEFFICIENT
0.0 	                  ! CORI - CORIOLIS PARAMETER - IGNORED IF NCOR = 1
8      			  ! NUMBER OF TIDAL POTENTIAL CONSTITUENTS BEING FORCED
K1     !ALPAHANUMERIC DESCRIPTION OF TIDAL POTENTIAL CONSTIT.
  0.141565  0.000072921158358  0.736  0.88996  263.02
O1
  0.100514  0.000067597744151  0.695  0.81975  89.93
P1
  0.046843  0.000072522945975  0.706  1.00000  93.64
Q1
  0.019256  0.000064958541129  0.695  0.81975  132.77
N2
  0.046398  0.000137879699487  0.693  1.03576  33.95
M2
  0.242334  0.000140518902509  0.693  1.03576  351.10
S2
  0.112841  0.000145444104333  0.693  1.00000  0.00
K2
  0.030704  0.000145842317201  0.693  0.75995  346.66
8  ! NBFR: bnd forcing
K1
  0.000072921158358  0.88996  263.02
O1
  0.000067597744151  0.81975  89.93
P1
  0.000072522945975  1.00000  93.64
Q1
  0.000064958541129  0.81975  132.77
N2
  0.000137879699487  1.03576  33.95
M2
  0.000140518902509  1.03576  351.10
S2
  0.000145444104333  1.00000  0.00
K2
  0.000145842317201  0.75995  346.66
K1  
   0.105459    248.476303
   0.103411    248.079956
   0.101158    247.405807
   0.098604    246.796371
   0.096141    246.483734
   0.093734    246.037643
   0.091925    245.751526
   0.090475    245.682495
   0.089209    245.647263
   0.087992    245.619171
   0.086759    245.634872
   0.085475    245.639252
   0.084217    245.561096
   0.083066    245.454498
   0.081952    245.325195
   0.080854    245.176636
   0.079760    244.999390
   0.078652    244.794739
   0.077563    244.576584
   0.076459    244.336548
   0.075350    244.066467
   0.074229    243.775543
   0.073117    243.451675
   0.071991    243.107880
   0.070868    242.737183
   0.069743    242.337555
   0.068593    241.913635
   0.067455    241.457214
   0.066296    240.969513
   0.065131    240.448074
   0.063971    239.898956
   0.062797    239.312592
   0.061612    238.679932
   0.060434    238.008179
   0.059266    237.282059
   0.058091    236.510239
   0.056921    235.675446
   0.055756    234.779053
   0.054592    233.824707
   0.053440    232.810577
   0.052296    231.738373
   0.051167    230.601898
   0.050067    229.402649
   0.048978    228.120438
   0.047912    226.780334
   0.046899    225.413589
   0.045937    223.999985
   0.045030    222.574905
   0.044171    221.112259
   0.043358    219.616043
   0.042597    218.105942
   0.041899    216.563004
   0.041255    215.011719
   0.040674    213.442535
   0.040133    211.857178
   0.039639    210.259659
   0.039202    208.673615
   0.038817    207.064331
   0.038498    205.493179
   0.038222    203.897202
   0.037981    202.331039
   0.037802    200.776581
   0.037659    199.244034
   0.037563    197.736618
   0.037516    196.242493
   0.037512    194.775314
   0.037556    193.342789
   0.037640    191.922867
   0.037774    190.539307
   0.037959    189.172989
   0.038169    187.838440
   0.038421    186.542007
   0.038705    185.287003
   0.039016    184.061554
   0.039354    182.884384
   0.039726    181.731400
   0.040128    180.618195
   0.040556    179.532349
   0.041017    178.491119
   0.041494    177.497101
   0.041997    176.550323
   0.042515    175.631180
   0.043050    174.764252
   0.043605    173.926697
   0.044165    173.135025
   0.044748    172.381210
   0.045341    171.652039
   0.045940    170.974014
   0.046560    170.334564
   0.047173    169.733978
   0.047786    169.177368
   0.048392    168.655243
   0.048992    168.176025
   0.049590    167.744446
   0.050183    167.342834
   0.050760    166.954559
   0.051323    166.620346
   0.051891    166.304901
   0.052448    166.010666
   0.052995    165.742950
   0.053529    165.509415
   0.054058    165.275665
   0.054573    165.065842
   0.055077    164.871811
   0.055574    164.696182
   0.056068    164.534012
   0.056544    164.392883
   0.057000    164.274048
   0.057473    164.137512
   0.057920    164.033646
   0.058364    163.946045
   0.058797    163.862488
   0.059230    163.788940
   0.059655    163.728134
   0.060064    163.679489
   0.060469    163.641464
   0.060854    163.608093
   0.061240    163.585495
   0.061617    163.566574
   0.061985    163.553696
   0.062337    163.559021
   0.062672    163.568130
   0.063014    163.581146
   0.063339    163.600845
   0.063641    163.617004
   0.063930    163.635315
   0.064252    163.658844
   0.064571    163.685196
   0.064884    163.711426
   0.065191    163.729065
   0.065490    163.750549
   0.065785    163.764618
   0.066082    163.758041
   0.066377    163.751816
   0.066665    163.740997
   0.066952    163.665329
   0.067237    163.592911
   0.067511    163.516174
   0.067768    163.435745
   0.067886    163.358109
   0.067976    163.291138
   0.068039    163.227127
   0.068080    163.167130
   0.068102    163.110657
   0.067623    163.115646
   0.067018    163.152176
   0.066292    163.122269
   0.065428    163.047363
   0.064428    162.929565
   0.063293    162.766830
   0.061625    162.327103
   0.059563    161.578644
   0.057595    160.735062
   0.055750    159.643295
   0.053984    158.403717
   0.052301    157.000732
   0.050714    155.420837
   0.049621    152.889786
   0.048843    150.135193
   0.048529    147.251099
   0.048544    144.319702
   0.048829    141.385437
   0.049386    138.499557
   0.050303    135.663284
   0.051415    132.982498
   0.052476    130.688217
   0.053647    128.576279
   0.054947    126.617302
   0.056363    124.813126
   0.058102    123.042229
   0.059999    121.434319
   0.061928    120.138405
   0.063890    119.006126
   0.065868    118.020752
   0.067843    117.165390
   0.069747    116.359306
   0.071653    115.283340
   0.073339    114.405472
   0.074690    113.780014
   0.075861    113.321404
   0.076874    112.995049
   0.077754    112.772270
   0.078517    112.633720
   0.079157    112.557938
   0.079304    113.005653
   0.079395    113.426773
O1  
   0.090580    237.579651
   0.088630    236.521683
   0.086452    235.446136
   0.084184    234.385574
   0.082364    233.719391
   0.080672    233.003998
   0.079421    232.567047
   0.078502    232.369812
   0.077710    232.231995
   0.076936    232.109253
   0.076147    232.012527
   0.075338    231.893326
   0.074573    231.741516
   0.073853    231.593536
   0.073150    231.449982
   0.072448    231.301407
   0.071738    231.145081
   0.071026    230.986145
   0.070305    230.819565
   0.069579    230.645554
   0.068844    230.465714
   0.068106    230.275848
   0.067361    230.075333
   0.066608    229.867996
   0.065855    229.650024
   0.065088    229.423843
   0.064316    229.183853
   0.063536    228.933884
   0.062748    228.672470
   0.061954    228.399323
   0.061152    228.114136
   0.060346    227.816193
   0.059531    227.501572
   0.058714    227.173233
   0.057896    226.825302
   0.057070    226.464523
   0.056240    226.082336
   0.055407    225.678192
   0.054569    225.253677
   0.053730    224.811310
   0.052894    224.346802
   0.052062    223.856125
   0.051228    223.340302
   0.050398    222.794266
   0.049572    222.223450
   0.048769    221.639999
   0.047995    221.034836
   0.047249    220.421814
   0.046518    219.790421
   0.045815    219.138550
   0.045137    218.479568
   0.044482    217.800293
   0.043854    217.108368
   0.043253    216.401016
   0.042674    215.682281
   0.042116    214.948151
   0.041587    214.205734
   0.041079    213.446091
   0.040601    212.681198
   0.040144    211.904190
   0.039712    211.120514
   0.039307    210.328430
   0.038925    209.532242
   0.038569    208.727615
   0.038239    207.911469
   0.037929    207.086700
   0.037645    206.245651
   0.037382    205.388550
   0.037142    204.516083
   0.036927    203.629288
   0.036727    202.728119
   0.036551    201.818909
   0.036401    200.895950
   0.036267    199.975830
   0.036160    199.044434
   0.036078    198.107376
   0.036023    197.171158
   0.035994    196.238876
   0.035995    195.306702
   0.036020    194.382629
   0.036071    193.462952
   0.036143    192.559448
   0.036240    191.658096
   0.036365    190.781982
   0.036511    189.925262
   0.036687    189.077255
   0.036889    188.261292
   0.037112    187.459473
   0.037369    186.685104
   0.037642    185.937561
   0.037938    185.226349
   0.038248    184.554657
   0.038569    183.914581
   0.038904    183.313690
   0.039252    182.753128
   0.039612    182.222092
   0.039977    181.731934
   0.040346    181.268463
   0.040723    180.839935
   0.041106    180.440323
   0.041491    180.068283
   0.041874    179.723984
   0.042259    179.403778
   0.042643    179.098557
   0.043028    178.821213
   0.043410    178.562653
   0.043791    178.319641
   0.044172    178.102066
   0.044549    177.890152
   0.044928    177.702652
   0.045299    177.525757
   0.045670    177.358093
   0.046040    177.206940
   0.046407    177.063828
   0.046769    176.934067
   0.047134    176.808426
   0.047484    176.690796
   0.047835    176.586807
   0.048183    176.481628
   0.048521    176.381805
   0.048853    176.295990
   0.049177    176.216431
   0.049491    176.129669
   0.049790    176.054352
   0.050078    175.975784
   0.050351    175.899551
   0.050652    175.807083
   0.050943    175.710815
   0.051229    175.615921
   0.051501    175.499283
   0.051767    175.383438
   0.052016    175.262146
   0.052245    175.128372
   0.052471    174.990616
   0.052690    174.846100
   0.052860    174.666779
   0.053025    174.487213
   0.053175    174.304688
   0.053305    174.123306
   0.053307    173.997650
   0.053272    173.887436
   0.053202    173.800491
   0.053106    173.738037
   0.052986    173.696854
   0.052471    173.907135
   0.051880    174.205399
   0.051172    174.515060
   0.050374    174.881317
   0.049491    175.310486
   0.048521    175.809036
   0.047107    176.453461
   0.045322    177.185120
   0.043570    177.880630
   0.041774    178.383331
   0.039966    178.838470
   0.038140    179.236374
   0.036293    179.564163
   0.034125    178.760956
   0.031992    177.488129
   0.030007    175.518509
   0.028144    172.956863
   0.026403    169.802841
   0.024825    165.982864
   0.023496    161.327637
   0.022403    156.110214
   0.021538    151.093918
   0.020905    145.789230
   0.020526    140.204773
   0.020411    134.493744
   0.020676    128.431122
   0.021272    122.591843
   0.022165    117.547546
   0.023246    113.103394
   0.024470    109.250839
   0.025796    105.945854
   0.027120    102.995018
   0.028394     99.519554
   0.029595     96.695007
   0.030592     94.635239
   0.031476     93.056992
   0.032249     91.848434
   0.032923     90.920792
   0.033506     90.216377
   0.033992     89.691956
   0.034125     90.430130
   0.034217     91.153740
P1  
   0.032523    251.189087
   0.032419    249.799057
   0.032131    248.266296
   0.031694    246.863510
   0.031154    246.114120
   0.030590    245.331375
   0.030122    244.872528
   0.029719    244.715530
   0.029356    244.609665
   0.029003    244.514008
   0.028652    244.460815
   0.028277    244.388779
   0.027912    244.252808
   0.027572    244.098114
   0.027244    243.934189
   0.026917    243.748871
   0.026588    243.544250
   0.026259    243.321075
   0.025928    243.081360
   0.025593    242.823059
   0.025258    242.546539
   0.024919    242.243134
   0.024579    241.915253
   0.024236    241.568344
   0.023893    241.196777
   0.023546    240.802109
   0.023194    240.386627
   0.022840    239.942337
   0.022483    239.472687
   0.022122    238.974274
   0.021757    238.449036
   0.021389    237.894684
   0.021018    237.303772
   0.020647    236.675797
   0.020274    236.007019
   0.019900    235.296326
   0.019524    234.538879
   0.019146    233.728973
   0.018767    232.866058
   0.018388    231.959030
   0.018012    231.003464
   0.017638    229.988480
   0.017268    228.913727
   0.016902    227.769791
   0.016542    226.573196
   0.016196    225.343079
   0.015866    224.073837
   0.015553    222.788544
   0.015253    221.460175
   0.014968    220.103485
   0.014701    218.726028
   0.014452    217.323441
   0.014220    215.900589
   0.014005    214.463226
   0.013805    213.012177
   0.013622    211.547958
   0.013454    210.083969
   0.013303    208.608307
   0.013169    207.139496
   0.013050    205.666565
   0.012944    204.213287
   0.012854    202.763657
   0.012777    201.329391
   0.012714    199.914520
   0.012666    198.510666
   0.012632    197.125595
   0.012612    195.753738
   0.012606    194.397263
   0.012612    193.056168
   0.012633    191.739304
   0.012665    190.437622
   0.012707    189.163284
   0.012761    187.915710
   0.012823    186.692886
   0.012896    185.507462
   0.012979    184.350998
   0.013073    183.233246
   0.013177    182.154984
   0.013292    181.115112
   0.013415    180.121643
   0.013548    179.162888
   0.013686    178.249008
   0.013834    177.375443
   0.013989    176.549118
   0.014149    175.760513
   0.014319    175.014420
   0.014495    174.315323
   0.014677    173.655136
   0.014868    173.045837
   0.015062    172.473618
   0.015261    171.947311
   0.015460    171.463531
   0.015661    171.020950
   0.015863    170.618439
   0.016065    170.255814
   0.016268    169.928787
   0.016470    169.635468
   0.016673    169.369797
   0.016874    169.133728
   0.017074    168.924576
   0.017272    168.738571
   0.017469    168.571167
   0.017663    168.425125
   0.017855    168.292221
   0.018045    168.181366
   0.018233    168.083740
   0.018418    167.996399
   0.018600    167.926666
   0.018781    167.861923
   0.018958    167.814026
   0.019133    167.772690
   0.019305    167.738876
   0.019475    167.717346
   0.019642    167.698990
   0.019805    167.688980
   0.019968    167.684021
   0.020122    167.680145
   0.020274    167.688049
   0.020424    167.695206
   0.020568    167.704529
   0.020707    167.724670
   0.020841    167.745148
   0.020970    167.763489
   0.021090    167.783524
   0.021205    167.804733
   0.021313    167.822662
   0.021431    167.839218
   0.021544    167.856369
   0.021654    167.872055
   0.021761    167.874252
   0.021863    167.874985
   0.021960    167.869766
   0.022052    167.853699
   0.022143    167.835739
   0.022231    167.813049
   0.022310    167.758026
   0.022386    167.706268
   0.022458    167.653412
   0.022523    167.601212
   0.022549    167.580948
   0.022564    167.572647
   0.022571    167.576080
   0.022573    167.591690
   0.022571    167.617859
   0.022429    167.799026
   0.022253    168.029968
   0.022034    168.227890
   0.021776    168.405472
   0.021479    168.566956
   0.021144    168.714188
   0.020644    168.719986
   0.020017    168.555298
   0.019412    168.326385
   0.018829    167.890640
   0.018259    167.355835
   0.017703    166.709152
   0.017161    165.937576
   0.016692    164.276138
   0.016287    162.366943
   0.015992    160.223099
   0.015773    157.926437
   0.015617    155.514740
   0.015528    153.018463
   0.015540    150.373383
   0.015609    147.756241
   0.015691    145.467209
   0.015812    143.281433
   0.015976    141.172592
   0.016180    139.154282
   0.016479    137.052216
   0.016832    135.053207
   0.017221    133.342896
   0.017631    131.790756
   0.018059    130.389679
   0.018498    129.129974
   0.018921    127.952721
   0.019315    126.547691
   0.019665    125.396790
   0.019946    124.578751
   0.020195    123.970581
   0.020415    123.531082
   0.020609    123.225319
   0.020781    123.029282
   0.020926    122.917992
   0.021000    123.382729
   0.021058    123.820435
Q1  
   0.017294    216.300415
   0.017067    215.136963
   0.016765    213.998322
   0.016451    212.847076
   0.016199    212.070435
   0.015962    211.253799
   0.015773    210.729385
   0.015635    210.425491
   0.015519    210.186111
   0.015404    209.965729
   0.015284    209.758682
   0.015164    209.520813
   0.015055    209.267197
   0.014948    209.030716
   0.014842    208.809479
   0.014736    208.591537
   0.014627    208.374878
   0.014516    208.159149
   0.014404    207.941925
   0.014290    207.722260
   0.014176    207.501892
   0.014060    207.278824
   0.013943    207.053894
   0.013825    206.825211
   0.013706    206.594376
   0.013586    206.357895
   0.013465    206.114197
   0.013343    205.867004
   0.013220    205.613113
   0.013096    205.352325
   0.012971    205.083221
   0.012845    204.805298
   0.012718    204.519318
   0.012590    204.223907
   0.012461    203.921875
   0.012331    203.609329
   0.012200    203.284836
   0.012068    202.948624
   0.011934    202.600357
   0.011800    202.237213
   0.011665    201.863663
   0.011530    201.473175
   0.011393    201.069992
   0.011256    200.649399
   0.011117    200.214294
   0.010981    199.771790
   0.010850    199.323242
   0.010721    198.872437
   0.010594    198.413452
   0.010471    197.944580
   0.010350    197.473862
   0.010232    196.997101
   0.010117    196.516495
   0.010006    196.031342
   0.009898    195.539154
   0.009792    195.041992
   0.009690    194.540100
   0.009590    194.034439
   0.009494    193.523514
   0.009401    193.007172
   0.009311    192.486725
   0.009224    191.959503
   0.009140    191.428848
   0.009059    190.891083
   0.008981    190.344040
   0.008906    189.787598
   0.008834    189.216461
   0.008765    188.632111
   0.008699    188.027863
   0.008636    187.409363
   0.008575    186.775330
   0.008517    186.127914
   0.008462    185.461838
   0.008409    184.786484
   0.008361    184.095032
   0.008315    183.390442
   0.008274    182.668839
   0.008236    181.935150
   0.008203    181.183838
   0.008174    180.425003
   0.008149    179.652176
   0.008128    178.867630
   0.008113    178.068588
   0.008101    177.267685
   0.008095    176.463760
   0.008095    175.649170
   0.008100    174.835464
   0.008110    174.017197
   0.008128    173.202621
   0.008151    172.392487
   0.008179    171.597168
   0.008212    170.824051
   0.008250    170.073959
   0.008292    169.349503
   0.008340    168.653641
   0.008391    167.983459
   0.008447    167.343063
   0.008505    166.729065
   0.008567    166.144989
   0.008632    165.590302
   0.008699    165.062454
   0.008767    164.561035
   0.008838    164.087051
   0.008909    163.634064
   0.008983    163.212814
   0.009057    162.811462
   0.009132    162.432831
   0.009208    162.081085
   0.009283    161.743652
   0.009360    161.432312
   0.009436    161.136978
   0.009512    160.859695
   0.009588    160.600891
   0.009664    160.355957
   0.009739    160.128922
   0.009814    159.911362
   0.009885    159.709061
   0.009956    159.521881
   0.010027    159.344055
   0.010094    159.181641
   0.010160    159.034607
   0.010225    158.896027
   0.010286    158.767807
   0.010343    158.650726
   0.010397    158.542068
   0.010448    158.439636
   0.010503    158.325317
   0.010555    158.217636
   0.010605    158.111420
   0.010651    158.004181
   0.010695    157.899414
   0.010735    157.797363
   0.010772    157.695297
   0.010808    157.592072
   0.010841    157.487900
   0.010868    157.379791
   0.010893    157.271683
   0.010916    157.164825
   0.010936    157.063339
   0.010935    157.031525
   0.010932    157.030258
   0.010929    157.059097
   0.010926    157.112930
   0.010924    157.188431
   0.010887    157.604660
   0.010844    158.102203
   0.010790    158.685318
   0.010730    159.302338
   0.010664    159.954880
   0.010593    160.647476
   0.010493    161.519241
   0.010368    162.535385
   0.010244    163.527969
   0.010103    164.451614
   0.009962    165.369232
   0.009819    166.281281
   0.009675    167.186584
   0.009468    167.847656
   0.009253    168.412033
   0.009034    168.783798
   0.008813    169.043198
   0.008590    169.225220
   0.008364    169.321014
   0.008131    169.202209
   0.007901    169.011978
   0.007701    168.917862
   0.007508    168.798325
   0.007318    168.625839
   0.007130    168.397659
   0.006927    167.873505
   0.006725    167.202271
   0.006541    166.426743
   0.006368    165.569778
   0.006204    164.637039
   0.006051    163.636200
   0.005901    162.675186
   0.005711    162.020508
   0.005544    161.515594
   0.005418    161.212128
   0.005321    160.990509
   0.005247    160.842545
   0.005192    160.759598
   0.005154    160.733810
   0.005130    160.758041
   0.005184    160.642563
   0.005237    160.533020
N2  
   0.174776    204.288101
   0.160150    204.398270
   0.142299    204.382584
   0.126173    204.081848
   0.116070    203.516296
   0.107202    202.677399
   0.101408    202.071136
   0.098849    201.965851
   0.097167    202.091370
   0.095574    202.242538
   0.094039    202.367035
   0.092765    202.528275
   0.091497    202.754471
   0.090199    203.003098
   0.088809    203.269409
   0.087265    203.557663
   0.085577    203.866028
   0.083780    204.203583
   0.081907    204.572571
   0.079970    204.977936
   0.077960    205.425964
   0.075833    205.927383
   0.073613    206.483688
   0.071366    207.099945
   0.069045    207.784485
   0.066691    208.537933
   0.064334    209.362305
   0.061908    210.277161
   0.059460    211.286743
   0.056988    212.400818
   0.054526    213.628265
   0.052084    214.983246
   0.049625    216.495712
   0.047164    218.193115
   0.044689    220.121902
   0.042228    222.288773
   0.039791    224.749161
   0.037379    227.562988
   0.035031    230.796204
   0.032890    234.419708
   0.030912    238.571960
   0.029161    243.235565
   0.027624    248.545898
   0.026360    254.488510
   0.025472    260.864868
   0.024949    267.405029
   0.024779    273.891815
   0.024953    280.014465
   0.025421    285.885925
   0.026121    291.116028
   0.027010    295.903107
   0.028060    300.234863
   0.029234    304.121674
   0.030477    307.487061
   0.031743    310.363525
   0.033037    312.904266
   0.034350    315.154694
   0.035679    317.189301
   0.037026    319.010651
   0.038344    320.613281
   0.039634    321.994507
   0.040892    323.234680
   0.042117    324.330688
   0.043329    325.312714
   0.044507    326.194031
   0.045675    327.007996
   0.046843    327.751160
   0.047991    328.427917
   0.049105    329.040985
   0.050212    329.596954
   0.051321    330.103363
   0.052410    330.554138
   0.053457    330.954437
   0.054500    331.324524
   0.055515    331.652740
   0.056508    331.928406
   0.057486    332.178101
   0.058447    332.387512
   0.059387    332.560974
   0.060312    332.710602
   0.061224    332.830566
   0.062113    332.928558
   0.062974    333.009125
   0.063840    333.064270
   0.064687    333.077820
   0.065514    333.072418
   0.066323    333.036469
   0.067123    332.979218
   0.067920    332.897888
   0.068713    332.795868
   0.069504    332.673798
   0.070283    332.535309
   0.071047    332.377136
   0.071794    332.201202
   0.072530    332.011475
   0.073255    331.810181
   0.073977    331.598633
   0.074691    331.379059
   0.075399    331.154144
   0.076105    330.926758
   0.076807    330.696655
   0.077506    330.464050
   0.078205    330.233368
   0.078893    330.002625
   0.079579    329.772369
   0.080257    329.543701
   0.080932    329.319275
   0.081601    329.101105
   0.082266    328.882568
   0.082928    328.670288
   0.083581    328.464325
   0.084234    328.260956
   0.084881    328.063232
   0.085523    327.869019
   0.086160    327.683197
   0.086792    327.496277
   0.087401    327.314667
   0.088003    327.137451
   0.088596    326.964996
   0.089174    326.801971
   0.089734    326.646057
   0.090280    326.499268
   0.090805    326.349121
   0.091305    326.211517
   0.091778    326.083923
   0.092227    325.961060
   0.092724    325.816711
   0.093202    325.678284
   0.093668    325.549469
   0.094125    325.416260
   0.094575    325.287537
   0.095008    325.160522
   0.095422    325.039093
   0.095824    324.924683
   0.096213    324.814148
   0.096596    324.698700
   0.096966    324.588562
   0.097319    324.481750
   0.097653    324.383423
   0.097948    324.369537
   0.098277    324.382813
   0.098650    324.412628
   0.099056    324.453033
   0.099491    324.502472
   0.100498    324.910187
   0.101619    325.371735
   0.102893    325.904602
   0.104245    326.394501
   0.105674    326.842712
   0.107185    327.253448
   0.109002    327.626312
   0.111039    327.973175
   0.113010    328.309540
   0.114809    328.665894
   0.116573    329.004059
   0.118303    329.325378
   0.119996    329.630524
   0.121057    329.905731
   0.122032    330.155640
   0.122893    330.371582
   0.123705    330.567810
   0.124494    330.749207
   0.125257    330.915131
   0.125729    331.019989
   0.126169    331.108612
   0.126649    331.185028
   0.127125    331.254944
   0.127587    331.318970
   0.128036    331.377197
   0.128290    331.406036
   0.128513    331.427582
   0.128733    331.447144
   0.128949    331.459991
   0.129161    331.466644
   0.129367    331.467651
   0.129545    331.471741
   0.129648    331.518890
   0.129755    331.587128
   0.129881    331.682281
   0.130029    331.789520
   0.130194    331.905762
   0.130372    332.029205
   0.130561    332.157837
   0.130751    332.285400
   0.130867    332.344727
   0.130959    332.389099
M2  
   0.810408    224.642914
   0.746309    223.856659
   0.664735    223.208755
   0.589290    222.391830
   0.541958    221.721161
   0.500014    221.036087
   0.472557    220.621902
   0.460338    220.532516
   0.452453    220.637604
   0.445085    220.788696
   0.437941    220.920776
   0.432018    221.064163
   0.426085    221.298019
   0.420067    221.563690
   0.413639    221.851257
   0.406460    222.154129
   0.398573    222.481445
   0.390077    222.829178
   0.381187    223.205795
   0.371934    223.612961
   0.362319    224.063278
   0.352073    224.555511
   0.341332    225.095764
   0.330468    225.704498
   0.319247    226.380463
   0.307835    227.127228
   0.296513    227.960449
   0.284872    228.900085
   0.273212    229.952042
   0.261482    231.130646
   0.249897    232.446808
   0.238477    233.914337
   0.227037    235.568787
   0.215657    237.433807
   0.204234    239.558441
   0.192914    241.950439
   0.181719    244.666321
   0.170642    247.775635
   0.159913    251.340179
   0.150232    255.328522
   0.141392    259.876770
   0.133766    264.949951
   0.127318    270.679657
   0.122317    277.002197
   0.119233    283.655945
   0.117954    290.343933
   0.118291    296.831238
   0.120152    302.809265
   0.123319    308.440125
   0.127373    313.390991
   0.132226    317.872070
   0.137704    321.891785
   0.143672    325.485321
   0.149799    328.588440
   0.155927    331.235382
   0.162133    333.590607
   0.168350    335.683228
   0.174595    337.589020
   0.180847    339.314667
   0.186927    340.843933
   0.192801    342.171631
   0.198512    343.380310
   0.204032    344.451843
   0.209512    345.433411
   0.214774    346.316528
   0.219977    347.147186
   0.225170    347.906433
   0.230248    348.607269
   0.235146    349.245056
   0.240038    349.821838
   0.244946    350.353271
   0.249758    350.828339
   0.254357    351.248260
   0.258943    351.638214
   0.263369    351.980286
   0.267742    352.269623
   0.272022    352.527008
   0.276210    352.743256
   0.280284    352.921417
   0.284293    353.069611
   0.288257    353.190216
   0.292130    353.280334
   0.295850    353.350555
   0.299552    353.392548
   0.303157    353.392914
   0.306686    353.375488
   0.310100    353.324982
   0.313478    353.251770
   0.316845    353.152863
   0.320173    353.031647
   0.323490    352.889679
   0.326781    352.736633
   0.329967    352.559753
   0.333104    352.369812
   0.336180    352.166412
   0.339231    351.952911
   0.342258    351.731110
   0.345278    351.505188
   0.348229    351.271271
   0.351194    351.039703
   0.354134    350.808899
   0.357060    350.576172