ASGS %StormName%       ! 32 CHARACTER ALPHANUMERIC RUN DESCRIPTION
%EnsembleID%           ! 24 CHARACTER ALPANUMERIC RUN IDENTIFICATION
 1                     ! NFOVER - NONFATAL ERROR OVERRIDE OPTION
 1                     ! NABOUT - ABREVIATED OUTPUT OPTION PARAMETER
%NSCREEN%   ! output frequency (in time steps) to STDOUT or adcirc.log
%IHOT%                 !  IHOT - HOT START PARAMETER
 2                     ! ICS - COORDINATE SYSTEM SELECTION PARAMETER
 0                     ! IM - MODEL SELECTION PARAMETER 
 1                     ! NOLIBF - BOTTOM FRICTION TERM SELECTION PARAMETER
 2                     ! NOLIFA - FINITE AMPLITUDE TERM SELECTION PARAMETER
 1                     ! NOLICA - SPATIAL DERIVATIVE CONVECTIVE SELECTION PARAMETER
 1                     ! NOLICAT - TIME DERIVATIVE CONVECTIVE TERM SELECTION PARAMETER
 5                     ! NWP - VARIABLE BOTTOM FRICTION AND LATERAL VISCOSITY OPTION PARAMETER
surface_canopy_coefficient
primitive_weighting_in_continuity_equation
surface_directional_effective_roughness_length
mannings_n_at_sea_floor
wave_refraction_in_swan
 1                     ! NCOR - VARIABLE CORIOLIS IN SPACE OPTION PARAMETER
 1                     ! NTIP - TIDAL POTENTIAL OPTION PARAMETER (Chris changed from 0 to 1)
%NWS%                  !  NWS - WIND STRESS AND BAROMETRIC PRESSURE PARAMETER
 1                     ! NRAMP - RAMP FUNCTION OPTION
 9.81                  ! G - ACCELERATION DUE TO GRAVITY - DETERMINES UNITS
 -3.0                  ! TAU0 - WEIGHTING FACTOR IN GWCE
 %DT%                  ! DT - TIME STEP (IN SECONDS)
 0.00                  ! STATIM - STARTING TIME (IN DAYS)
 0.00                  ! REFTIM - REFERENCE TIME (IN DAYS)
%WTIMINC%              ! wtiminc
%RNDAY%                !  RNDAY - TOTAL LENGTH OF SIMULATION (IN DAYS)
 7.0                   ! DRAMP - DURATION OF RAMP FUNCTION (IN DAYS) 
 0.35 0.30 0.35        ! TIME WEIGHTING FACTORS FOR THE GWCE EQUATION
 0.10 0 0 0.01         ! H0, NODEDRYMIN, NODEWETMIN, VELMIN
 -79.0 35.0            ! SLAM0,SFEA0 - CENTER OF CPP PROJECTION (NOT USED IF ICS=1, NTIP=0, NCOR=0)
 0.0030 2.0 10 1.33333 ! FFACTOR,HBREAK,FTHETA,FGAMMA
 50.0                  ! ESL - LATERAL EDDY VISCOSITY COEFFICIENT; IGNORED IF NWP =1
 0.0                   ! CORI - CORIOLIS PARAMETER - IGNORED IF NCOR = 1
 7                     ! NTIF - TOTAL NUMBER OF TIDAL POTENTIAL CONSTITUENTS BE
 M2                    ! ALPHANUMERIC DATA FOR TIDAL POTENTIAL
   0.242334   0.000140518902509   0.692  %M2NF%  %M2EQARG%
 N2
   0.046398   0.000137879699487   0.692  %N2NF%  %N2EQARG%
 K2
   0.030704   0.000145842317201   0.692  %K2NF%  %K2EQARG%
 S2
   0.112841   0.000145444104333   0.692  %S2NF%  %S2EQARG%
 K1
   0.141565   0.000072921158358   0.730  %K1NF%  %K1EQARG%
 O1
   0.100514   0.000067597744151   0.689  %O1NF%  %O1EQARG%
 Q1
   0.019256   0.000064958541129   0.689  %Q1NF%  %Q1EQARG%
 7                     ! NBFR - TOTAL NUMBER OF FORCING FREQUENCIES ON OPEN BOU
 M2                    ! ALPHANUMERIC DATA FOR OPEN OCEAN FORCING
   0.000140518902509   %M2NF%  %M2EQARG%
 N2
   0.000137879699487   %N2NF%  %N2EQARG%
 K2
   0.000145842317201   %K2NF%  %K2EQARG%
 S2
   0.000145444104333   %S2NF%  %S2EQARG%
 K1
   0.000072921158358   %K1NF%  %K1EQARG%
 O1
   0.000067597744151   %O1NF%  %O1EQARG%
 Q1
   0.000064958541129   %Q1NF%  %Q1EQARG%
 M2        ! ALPHA NUMERIC DESCRIPTION OF ELEVATION BOUNDARY FORCING 
0.55410	223.45000
0.53730	222.97002
0.52050	222.49002
0.48815	221.56566
0.46121	220.77970
0.43460	219.91594
0.42124	219.44474
0.40765	218.98113
0.38038	217.96337
0.35480	216.88008
0.34061	216.40018
0.32739	215.90796
0.31404	215.57482
0.30068	215.32114
0.28750	215.09001
0.27590	215.15000
0.26421	215.21062
0.24364	215.61095
0.22810	216.15000
0.21490	216.86000
0.20252	217.58697
0.19073	218.40121
0.18118	219.16360
0.17213	220.06642
0.16334	221.08040
0.15635	222.19488
0.14835	223.58465
0.13987	225.16112
0.13127	227.04021
0.12258	229.24241
0.11330	231.92994
0.10390	235.26991
0.09460	239.38991
0.08640	244.42003
0.07900	250.49989
0.07288	257.80834
0.06840	266.13999
0.06540	279.60981
0.06677	294.55120
0.07475	311.11721
0.08651	322.68759
0.10010	330.48004
0.11640	336.46997
0.13280	340.62999
0.14740	343.31999
0.16160	345.22999
0.17830	347.15999
0.19480	348.61000
0.21110	349.72999
0.22660	350.58000
0.24100	351.15000
0.25480	351.62000
0.26790	352.06000
0.28050	352.30000
0.29360	352.56000
0.30610	352.62000
0.31700	352.72000
0.32750	352.71000
0.33630	352.57000
0.34470	352.43000
0.35300	352.19000
0.36060	351.90000
0.36860	351.41000
0.37630	350.93000
0.38288	350.41334
0.38931	349.76886
0.39250	349.43000
0.39580	349.04000
0.39930	348.61000
0.40270	348.25000
0.40640	347.76000
0.41000	347.20000
0.41370	346.59000
0.41710	345.97001
0.42060	345.27000
0.42390	344.52000
0.42723	343.71725
0.42980	343.21090
0.44410	344.43004
0.45771	345.89226
0.47509	347.52928
0.48090	347.70999
0.48549	347.58559
0.49164	347.43403
0.49784	347.28549
0.50170	347.09999
0.50360	346.85999
0.50460	346.72001
0.50570	346.58999
0.50680	346.45000
0.50790	346.30999
0.50760	346.17000
0.50670	346.04001
0.50580	345.90001
0.50490	345.75999
0.50395	345.61237
0.50308	345.47171
0.50212	345.32773
0.50102	345.16254
0.49995	345.00320
0.49875	344.82295
0.49760	344.65002
0.49680	344.53001
 N2          ! ALPHA NUMERIC DESCRIPTION OF ELEVATION BOUNDARY FORCING 
0.12010	197.60000
0.11650	197.40001
0.11290	197.20001
0.10597	196.81486
0.10026	196.50154
0.09466	196.15969
0.09190	195.97490
0.08908	195.82419
0.08329	195.50855
0.07787	195.15094
0.07485	194.90511
0.07201	194.65109
0.06920	194.42984
0.06643	194.22291
0.06370	194.02000
0.06120	193.97000
0.05873	193.92454
0.05438	194.03463
0.05110	194.30000
0.04820	194.73000
0.04546	195.20131
0.04286	195.80334
0.04083	196.44527
0.03871	197.30651
0.03669	198.31040
0.03510	199.43488
0.03320	200.78727
0.03121	202.24381
0.02923	203.90341
0.02715	205.84661
0.02500	208.27995
0.02280	211.31992
0.02060	215.10992
0.01850	219.73002
0.01670	225.52989
0.01507	232.75834
0.01380	241.32999
0.01280	256.00979
0.01283	273.32121
0.01457	292.70357
0.01719	305.73553
0.02030	314.24004
0.02410	320.56997
0.02790	324.70999
0.03120	327.32999
0.03440	329.23999
0.03830	331.05999
0.04200	332.43000
0.04580	333.54999
0.04930	334.29000
0.05270	334.85000
0.05590	335.22000
0.05890	335.56000
0.06180	335.80000
0.06490	335.92000
0.06780	336.02000
0.07040	336.02000
0.07290	335.91000
0.07500	335.77000
0.07710	335.56000
0.07910	335.26000
0.08090	334.90000
0.08290	334.38000
0.08470	333.82000
0.08634	333.21334
0.08782	332.48669
0.08860	332.08000
0.08930	331.64000
0.09010	331.21000
0.09090	330.78000
0.09180	330.26000
0.09260	329.70000
0.09330	329.08000
0.09410	328.38001
0.09490	327.66000
0.09560	326.91000
0.09637	326.09260
0.09690	325.53099
0.10060	326.08002
0.10411	326.92272
0.10849	327.81572
0.10990	327.80000
0.11104	327.56986
0.11256	327.25806
0.11405	326.95239
0.11510	326.61999
0.11570	326.23998
0.11600	326.02001
0.11640	325.79999
0.11680	325.57000
0.11710	325.34999
0.11720	325.12001
0.11720	324.88002
0.11720	324.64001
0.11720	324.39999
0.11720	324.16709
0.11720	323.92799
0.11720	323.67603
0.11720	323.38695
0.11720	323.10810
0.11720	322.79266
0.11720	322.49004
0.11720	322.28002
 K2          ! ALPHA NUMERIC DESCRIPTION OF ELEVATION BOUNDARY FORCING 
0.05360	237.47000
0.05160	237.15001
0.04960	236.83001
0.04575	236.21377
0.04283	235.69478
0.04003	235.11281
0.03870	234.78984
0.03724	234.47694
0.03449	233.77482
0.03185	233.01551
0.03045	232.64514
0.02918	232.26953
0.02790	232.00988
0.02663	231.82291
0.02540	231.64000
0.02430	231.67000
0.02329	231.71031
0.02138	232.04218
0.02000	232.49000
0.01890	233.06000
0.01776	233.65312
0.01674	234.24152
0.01594	234.71416
0.01530	235.07866
0.01457	235.45491
0.01408	235.96440
0.01347	236.59863
0.01278	237.31691
0.01207	238.10721
0.01138	238.99467
0.01060	240.03998
0.00990	241.33997
0.00910	242.91997
0.00830	244.92001
0.00750	247.39995
0.00673	250.50476
0.00610	254.48999
0.00520	262.12988
0.00428	274.01938
0.00372	295.43718
0.00371	318.10342
0.00420	336.41009
0.00510	350.38993
0.00620	359.16998
0.00720	4.34997
0.00820	7.93998
0.00930	11.18999
0.01050	13.62000
0.01160	15.54999
0.01280	16.86000
0.01380	17.93999
0.01470	18.74000
0.01570	19.48000
0.01660	20.02000
0.01750	20.52000
0.01840	20.92000
0.01910	21.21000
0.01980	21.41000
0.02050	21.50000
0.02100	21.50000
0.02160	21.40000
0.02200	21.26000
0.02250	20.96000
0.02300	20.70000
0.02329	20.27517
0.02362	19.84104
0.02380	19.57000
0.02400	19.29000
0.02410	19.00000
0.02430	18.63000
0.02450	18.25000
0.02460	17.84000
0.02480	17.38000
0.02500	16.91001
0.02510	16.38000
0.02520	15.82000
0.02532	15.22887
0.02540	14.82072
0.02640	16.34005
0.02737	18.01544
0.02861	19.87713
0.02900	20.15998
0.02934	20.13607
0.02970	20.09982
0.03006	20.07282
0.03030	20.03000
0.03050	19.97000
0.03060	19.94000
0.03060	19.90000
0.03070	19.87000
0.03080	19.84000
0.03080	19.82000
0.03070	19.82000
0.03070	19.81000
0.03060	19.81000
0.03050	19.79941
0.03048	19.79000
0.03036	19.79000
0.03023	19.79000
0.03009	19.79000
0.02994	19.79000
0.02980	19.79000
0.02970	19.79000
 S2          ! ALPHA NUMERIC DESCRIPTION OF ELEVATION BOUNDARY FORCING 
0.18940	273.86000
0.18460	272.70005
0.17980	271.54004
0.17056	269.30618
0.16260	267.35587
0.15479	265.20985
0.15085	264.00413
0.14570	262.14016
0.13588	257.88662
0.12728	253.37669
0.12235	251.34075
0.11784	249.28029
0.11330	247.97437
0.10864	247.10202
0.10400	246.24002
0.10020	246.26000
0.09632	246.28515
0.08973	246.83558
0.08490	247.49000
0.08070	248.16000
0.07683	248.82107
0.07308	249.40758
0.07007	249.82138
0.06711	249.99955
0.06423	250.16118
0.06198	250.53428
0.05947	251.07863
0.05684	251.80114
0.05418	252.78961
0.05153	253.95338
0.04860	255.36997
0.04550	257.09996
0.04250	259.16995
0.03960	261.63001
0.03690	264.55995
0.03441	268.03828
0.03220	272.03999
0.02940	278.93990
0.02703	287.95527
0.02517	301.33449
0.02502	314.58030
0.02600	326.48006
0.02830	337.54994
0.03140	346.09998
0.03440	351.99997
0.03760	356.49997
0.04170	0.88654
0.04580	4.40000
0.04990	7.23999
0.05400	9.37000
0.05780	11.03999
0.06140	12.41000
0.06490	13.61000
0.06830	14.62000
0.07180	15.49000
0.07520	16.31000
0.07810	16.83000
0.08090	17.32000
0.08330	17.60000
0.08550	17.86000
0.08760	17.92000
0.08950	17.93000
0.09150	17.86000
0.09330	17.70000
0.09475	17.41934
0.09622	17.12321
0.09690	16.93000
0.09760	16.71000
0.09830	16.50000
0.09900	16.22000
0.09980	15.91000
0.10070	15.60000
0.10140	15.28000
0.10220	14.82001
0.10290	14.40000
0.10370	13.92000
0.10462	13.41979
0.10545	13.17541
0.11100	15.12006
0.11641	17.06622
0.12332	19.20641
0.12560	19.55998
0.12721	19.59524
0.12941	19.65035
0.13166	19.70437
0.13320	19.63999
0.13410	19.44999
0.13470	19.35000
0.13520	19.23999
0.13580	19.13000
0.13630	19.02999
0.13650	18.87000
0.13640	18.68002
0.13630	18.50001
0.13630	18.31999
0.13620	18.13003
0.13618	17.94562
0.13606	17.75364
0.13593	17.53339
0.13579	17.32093
0.13564	17.08060
0.13550	16.85003
0.13540	16.69002
 K1          ! ALPHA NUMERIC DESCRIPTION OF ELEVATION BOUNDARY FORCING 
0.10240	243.26000
0.10120	242.86002
0.10000	242.46001
0.09769	241.68972
0.09577	241.01139
0.09397	240.30110
0.09305	239.94482
0.09207	239.60548
0.09015	238.90482
0.08836	238.21370
0.08760	237.83514
0.08676	237.46742
0.08620	237.17482
0.08568	236.93114
0.08510	236.68001
0.08480	236.44000
0.08440	236.19815
0.08364	235.65905
0.08290	235.15000
0.08210	234.61000
0.08124	234.07073
0.08034	233.51848
0.07944	233.06223
0.07850	232.43251
0.07746	231.75451
0.07644	231.12953
0.07543	230.45006
0.07443	229.80617
0.07347	229.12620
0.07258	228.41161
0.07180	227.65002
0.07100	226.89002
0.07010	226.11002
0.06930	225.29000
0.06850	224.50001
0.06773	223.72729
0.06700	222.92000
0.06590	221.64002
0.06475	220.17204
0.06327	218.26183
0.06186	216.37132
0.06060	214.47999
0.05920	212.22001
0.05790	209.87001
0.05690	207.70001
0.05590	205.51002
0.05500	202.82001
0.05410	200.11000
0.05350	197.26001
0.05300	194.40000
0.05270	191.71002
0.05260	189.02000
0.05260	186.52001
0.05280	184.07001
0.05320	181.52000
0.05370	179.11999
0.05420	177.06001
0.05490	175.12999
0.05550	173.54000
0.05620	172.05000
0.05700	170.58001
0.05780	169.20001
0.05880	167.76999
0.05980	166.56000
0.06058	165.57918
0.06145	164.80156
0.06180	164.44000
0.06220	164.10000
0.06260	163.81000
0.06290	163.59000
0.06320	163.40000
0.06360	163.28000
0.06400	163.20000
0.06440	163.13000
0.06480	163.05000
0.06530	162.97000
0.06602	162.54146
0.06690	161.59163
0.06300	152.77973
0.05997	143.10722
0.05881	130.18735
0.05960	126.18025
0.06087	123.48668
0.06271	119.96851
0.06477	116.64783
0.06660	113.19988
0.06840	109.45985
0.06960	107.32009
0.07100	105.26989
0.07240	103.29003
0.07380	101.37990
0.07540	99.00006
0.07700	96.52020
0.07880	94.14010
0.08070	91.86988
0.08281	89.71851
0.08490	87.66786
0.08730	85.60415
0.09006	83.23643
0.09271	80.95253
0.09572	78.36896
0.09860	75.89030
0.10060	74.17020
 O1          ! ALPHA NUMERIC DESCRIPTION OF ELEVATION BOUNDARY FORCING 
0.08640	231.84000
0.08560	231.64001
0.08480	231.44001
0.08326	231.05486
0.08187	230.72154
0.08047	230.38969
0.07980	230.21992
0.07907	230.09419
0.07763	229.83313
0.07626	229.58457
0.07550	229.44505
0.07476	229.31844
0.07415	229.21996
0.07358	229.14430
0.07300	229.07000
0.07250	229.04000
0.07210	229.00969
0.07124	228.87830
0.07050	228.74000
0.06980	228.60000
0.06914	228.40229
0.06848	228.19818
0.06797	228.02889
0.06740	227.72134
0.06687	227.39225
0.06636	227.10179
0.06581	226.77786
0.06524	226.45808
0.06464	226.13980
0.06409	225.81081
0.06360	225.43001
0.06310	225.05001
0.06250	224.66001
0.06200	224.28000
0.06140	223.90001
0.06093	223.50908
0.06040	223.13000
0.05960	222.52001
0.05867	221.83500
0.05747	220.92091
0.05647	219.94205
0.05550	218.99999
0.05430	217.84001
0.05320	216.69000
0.05220	215.57001
0.05130	214.38001
0.05020	212.96001
0.04930	211.44000
0.04830	209.89001
0.04740	208.26000
0.04680	206.58001
0.04610	204.90000
0.04550	203.25001
0.04510	201.57001
0.04470	199.75000
0.04450	197.97999
0.04430	196.29000
0.04430	194.71000
0.04430	193.35000
0.04440	191.99000
0.04470	190.65001
0.04500	189.34001
0.04550	187.97999
0.04600	186.84000
0.04678	185.96918
0.04757	185.10669
0.04800	184.73000
0.04850	184.40000
0.04900	184.12000
0.04950	183.91000
0.05030	183.62000
0.05100	183.29000
0.05170	182.92000
0.05250	182.61000
0.05320	182.23000
0.05380	181.74000
0.05344	181.70783
0.05200	182.77810
0.03940	186.45015
0.02746	192.70448
0.01371	214.96984
0.01010	232.05894
0.00856	254.52328
0.00906	289.53937
0.01212	314.30374
0.01660	324.89012
0.02190	328.58010
0.02510	330.03994
0.02830	331.17005
0.03150	332.06999
0.03470	332.81000
0.03830	332.75000
0.04210	332.46002
0.04580	332.23001
0.04960	332.01999
0.05341	331.85179
0.05720	331.70171
0.06116	331.55773
0.06571	331.39254
0.07009	331.23320
0.07504	331.05295
0.07980	330.88002
0.08310	330.76001
 Q1          ! ALPHA NUMERIC DESCRIPTION OF ELEVATION BOUNDARY FORCING 
0.01390	210.82000
0.01390	210.62001
0.01390	210.42001
0.01390	210.03486
0.01380	209.67985
0.01360	209.29969
0.01350	209.10490
0.01340	208.94419
0.01320	208.60855
0.01300	208.29094
0.01290	208.10508
0.01272	207.93265
0.01265	207.81494
0.01250	207.74038
0.01240	207.67000
0.01230	207.64000
0.01215	207.60485
0.01197	207.60000
0.01180	207.57000
0.01170	207.50000
0.01160	207.36820
0.01148	207.20818
0.01140	207.03528
0.01130	206.78108
0.01130	206.49568
0.01120	206.22179
0.01120	205.92089
0.01110	205.65385
0.01102	205.34980
0.01100	205.04226
0.01090	204.72001
0.01090	204.40001
0.01080	204.07001
0.01070	203.76000
0.01060	203.41001
0.01051	203.02821
0.01040	202.70000
0.01030	202.18001
0.01020	201.55500
0.01010	200.73364
0.00999	199.87578
0.00990	199.05999
0.00970	198.05001
0.00960	197.04000
0.00940	196.12001
0.00930	195.10001
0.00910	193.89000
0.00900	192.66000
0.00890	191.36001
0.00880	190.06000
0.00870	188.78001
0.00860	187.42000
0.00850	186.09001
0.00840	184.80001
0.00840	183.39000
0.00840	181.89000
0.00830	180.60000
0.00830	179.33000
0.00830	178.20000
0.00830	177.05000
0.00830	175.90001
0.00840	174.81001
0.00840	173.57999
0.00850	172.53000
0.00860	171.66918
0.00870	170.80669
0.00880	170.43000
0.00880	170.07000
0.00890	169.72000
0.00900	169.43000
0.00910	169.13000
0.00920	168.79000
0.00930	168.40000
0.00940	167.94001
0.00950	167.46000
0.00950	166.96000
0.00950	166.69951
0.00940	167.02441
0.00700	175.67043
0.00494	193.51785
0.00372	236.47627
0.00380	253.36895
0.00395	264.86887
0.00450	278.14380
0.00522	288.47185
0.00610	294.88012
0.00710	298.58012
0.00770	300.30993
0.00840	301.78007
0.00900	303.03998
0.00960	304.13002
0.01040	304.71998
0.01120	305.08997
0.01200	305.40999
0.01280	305.70001
0.01364	305.94232
0.01441	306.16743
0.01525	306.38340
0.01621	306.63119
0.01714	306.87020
0.01819	307.14057
0.01920	307.39997
0.01990	307.57998
 110.0              ! ANGINN : INNER ANGLE THRESHOLD
%FORT61%            ! NOUTE etc ELEV STATION OUTPUT INFO (UNIT  61)
 %NUMELEVSTATIONS%  ! NSTAE
%FORT62%            ! NOUTV etc VEL STATION OUTPUT INFO (UNIT  62)
 %NUMVELSTATIONS%   ! NSTAV
%FORT7172%          ! NOUTM etc MET STATION OUTPUT INFO (UNITS 71 and 72)
 %NUMMETSTATIONS%   ! NSTAM
%FORT63%            ! NOUTGE,TOUTSGE,TOUTFGE,NSPOOLGE : GLOBAL ELEVATION OUTPUT INFO (UNIT  63)
%FORT64%            ! NOUTGV,TOUTSGV,TOUTFGV,NSPOOLGV : GLOBAL VELOCITY  OUTPUT INFO (UNIT  64)
%FORT7374%          ! NOUTGM,TOUTSGM,TOUTGM,NSPOOLGM  : Global Meterology Output Info (Unit 73/74)
0                    ! NHARFR - NUMBER OF CONSTITUENTS TO BE INCLUDED IN THE HARMONIC ANALYSIS
 40.0  50.0  5  0.0         ! THAS,THAF,NHAINC,FMV - HARMONIC ANALYSIS PARAMETERS
0 0 0 0                    ! NHASE,NHASV,NHAGE,NHAGV - CONTROL HARMONIC ANALYSIS AND OUTPUT TO UNITS 51,52,53,54
%NHSTAR%  %NHSINC%         ! NHSTAR,NHSINC - HOT START FILE GENERATION PARAMETERS
1  0  1.E-8  50 0          ! ITITER, ISLDIA, CONVCR, ITMAX & ILUMP
ASGS
UNC-CH IMS,SeahorseCoastal
Seahorse Coastal Consulting
ASGS Nowcast/Forecast
http://www.seahorsecoastal.com
No Comment
Seahorse Coastal Consulting
CF
jason.fleming@seahorsecoastal.com
varies
%CSYEAR%-%CSMONTH%-%CSDAY% %CSHOUR%:00:00
&inundationOutputControl inundationOutput=.true. inunThresh=0.6 /
%offsetline%

