 ASGS %StormName%     ! 32 CHARACTER ALPHANUMERIC RUN DESCRIPTION
 Corps %EnsembleID%          ! 24 CHARACTER ALPANUMERIC RUN IDENTIFICATION
 1                     ! NFOVER - NONFATAL ERROR OVERRIDE OPTION
 0                     ! NABOUT - ABREVIATED OUTPUT OPTION PARAMETER
-1000                  ! NSCREEN - UNIT 6 OUTPUT OPTION PARAMETER
 %IHOT%                ! IHOT - HOT START PARAMETER
 2                     ! ICS - COORDINATE SYSTEM SELECTION PARAMETER
 111122                ! IM - MODEL SELECTION PARAMETER 
 1                     ! NOLIBF - BOTTOM FRICTION TERM SELECTION PARAMETER
 2                     ! NOLIFA - FINITE AMPLITUDE TERM SELECTION PARAMETER
 0                     ! NOLICA - SPATIAL DERIVATIVE CONVECTIVE SELECTION PARAMETER
 0                     ! NOLICAT - TIME DERIVATIVE CONVECTIVE TERM SELECTION PARAMETER
 7                     ! NWP - VARIABLE BOTTOM FRICTION AND LATERAL VISCOSITY OPTION PARAMETER
surface_submergence_state
surface_directional_effective_roughness_length
surface_canopy_coefficient
mannings_n_at_sea_floor
sea_surface_height_above_geoid
primitive_weighting_in_continuity_equation
average_horizontal_eddy_viscosity_in_sea_water_wrt_depth
 1                     ! NCOR - VARIABLE CORIOLIS IN SPACE OPTION PARAMETER
 0                     ! NTIP - TIDAL POTENTIAL OPTION PARAMETER
 %NWS%            ! NWS - WIND STRESS AND BAROMETRIC PRESSURE OPTION PARAMETER
 2                     ! NRAMP - RAMP FUNCTION OPTION
 9.81                  ! G - ACCELERATION DUE TO GRAVITY - DETERMINES UNITS
 -3.0                  ! TAU0 - WEIGHTING FACTOR IN GWCE
 %DT%                   ! DT - TIME STEP (IN SECONDS)
 0.00                  ! STATIM - STARTING TIME (IN DAYS)
 0.00                  ! REFTIM - REFERENCE TIME (IN DAYS)
 %WTIMINC%           ! WTIMINC not used in asymmetric wind model
 %RNDAY%                ! RNDAY - TOTAL LENGTH OF SIMULATION (IN DAYS)
 1.0 6.0 6.0           ! DRAMP - DURATION OF RAMP FUNCTION (IN DAYS)
 0.0 1.0 0.0       ! TIME WEIGHTING FACTORS FOR THE GWCE EQUATION
 0.10 0 0 0.01         ! H0, NODEDRYMIN, NODEWETMIN, VELMIN
 265.5 29.0            ! SLAM0,SFEA0 - CENTER OF CPP PROJECTION (NOT USED IF ICS=1, NTIP=0, NCOR=0)
 0.0030 2.0 10 1.33333 ! FFACTOR,HBREAK,FTHETA,FGAMMA
 50.0                  ! ESL - LATERAL EDDY VISCOSITY COEFFICIENT; IGNORED IF NWP =1
 0.0                   ! CORI - CORIOLIS PARAMETER - IGNORED IF NCOR = 1
 0                     ! NTIF - TOTAL NUMBER OF TIDAL POTENTIAL CONSTITUENTS BE
 1                     ! NBFR - TOTAL NUMBER OF FORCING FREQUENCIES ON OPEN BOU
 STEADY                    ! ALPHANUMERIC DATA FOR OPEN OCEAN FORCING
 0.000000000000000  1.00000   000.00 
 STEADY       ! ALPHA NUMERIC DESCRIPTION OF ELEVATION BOUNDARY FORCING 
 0.0000 0.0000
 0.0000 0.0000
 0.0000 0.0000
 0.0000 0.0000
 0.0000 0.0000
 0.0000 0.0000
 0.0000 0.0000
 0.0000 0.0000
 0.0000 0.0000
 0.0000 0.0000
 0.0000 0.0000
 0.0000 0.0000
 0.0000 0.0000
 0.0000 0.0000
 0.0000 0.0000
 0.0000 0.0000
 0.0000 0.0000
 0.0000 0.0000
 0.0000 0.0000
 0.0000 0.0000
 0.0000 0.0000
 0.0000 0.0000
 0.0000 0.0000
 0.0000 0.0000
 0.0000 0.0000
 0.0000 0.0000
 0.0000 0.0000
 0.0000 0.0000
 0.0000 0.0000
 0.0000 0.0000
 0.0000 0.0000
 0.0000 0.0000
 0.0000 0.0000
 0.0000 0.0000
 0.0000 0.0000
 0.0000 0.0000
 0.0000 0.0000
 0.0000 0.0000
 0.0000 0.0000
 0.0000 0.0000
 0.0000 0.0000
 0.0000 0.0000
 0.0000 0.0000
 0.0000 0.0000
 0.0000 0.0000
 0.0000 0.0000
 0.0000 0.0000
 0.0000 0.0000
 0.0000 0.0000
 0.0000 0.0000
 0.0000 0.0000
 0.0000 0.0000
 0.0000 0.0000
 0.0000 0.0000
 0.0000 0.0000
 0.0000 0.0000
 0.0000 0.0000
 0.0000 0.0000
 0.0000 0.0000
 0.0000 0.0000
 0.0000 0.0000
 0.0000 0.0000
 0.0000 0.0000
 0.0000 0.0000
 0.0000 0.0000
 0.0000 0.0000
 0.0000 0.0000
 0.0000 0.0000
 0.0000 0.0000
 0.0000 0.0000
 0.0000 0.0000
 0.0000 0.0000
 0.0000 0.0000
 0.0000 0.0000
 0.0000 0.0000
 0.0000 0.0000
 0.0000 0.0000
 0.0000 0.0000
 0.0000 0.0000
 0.0000 0.0000
 0.0000 0.0000
 0.0000 0.0000
 0.0000 0.0000
 0.0000 0.0000
 0.0000 0.0000
 0.0000 0.0000
 0.0000 0.0000
 0.0000 0.0000
 0.0000 0.0000
 0.0000 0.0000
 0.0000 0.0000
 0.0000 0.0000
 0.0000 0.0000
 0.0000 0.0000
 0.0000 0.0000
 0.0000 0.0000
 0.0000 0.0000
 0.0000 0.0000
 0.0000 0.0000
 0.0000 0.0000
 0.0000 0.0000
 0.0000 0.0000
 0.0000 0.0000
 0.0000 0.0000
 0.0000 0.0000
 0.0000 0.0000
 0.0000 0.0000
 0.0000 0.0000
 0.0000 0.0000
 0.0000 0.0000
 0.0000 0.0000
 0.0000 0.0000
 0.0000 0.0000
 0.0000 0.0000
 0.0000 0.0000
 0.0000 0.0000
 0.0000 0.0000
 0.0000 0.0000
 0.0000 0.0000
 0.0000 0.0000
 0.0000 0.0000
 0.0000 0.0000
 0.0000 0.0000
 0.0000 0.0000
 0.0000 0.0000
 0.0000 0.0000
 0.0000 0.0000
 0.0000 0.0000
 0.0000 0.0000
 0.0000 0.0000
 0.0000 0.0000
 0.0000 0.0000
 0.0000 0.0000
 0.0000 0.0000
 0.0000 0.0000
 0.0000 0.0000
 0.0000 0.0000
 0.0000 0.0000
 0.0000 0.0000
 0.0000 0.0000
 0.0000 0.0000
 0.0000 0.0000
 0.0000 0.0000
 0.0000 0.0000
 0.0000 0.0000
 0.0000 0.0000
 0.0000 0.0000
 0.0000 0.0000
 0.0000 0.0000
 0.0000 0.0000
 0.0000 0.0000
 0.0000 0.0000
 0.0000 0.0000
 0.0000 0.0000
 0.0000 0.0000
 0.0000 0.0000
 0.0000 0.0000
 0.0000 0.0000
 0.0000 0.0000
 0.0000 0.0000
 0.0000 0.0000
 0.0000 0.0000
 0.0000 0.0000
 0.0000 0.0000
 0.0000 0.0000
 0.0000 0.0000
 0.0000 0.0000
 0.0000 0.0000
 0.0000 0.0000
 0.0000 0.0000
 0.0000 0.0000
 0.0000 0.0000
 0.0000 0.0000
 0.0000 0.0000
 0.0000 0.0000
 0.0000 0.0000
 0.0000 0.0000
 0.0000 0.0000
 0.0000 0.0000
 0.0000 0.0000
 0.0000 0.0000
 0.0000 0.0000
 0.0000 0.0000
 0.0000 0.0000
 0.0000 0.0000
 0.0000 0.0000
 0.0000 0.0000
 0.0000 0.0000
 0.0000 0.0000
 0.0000 0.0000
 0.0000 0.0000
 0.0000 0.0000
 0.0000 0.0000
 0.0000 0.0000
 0.0000 0.0000
 0.0000 0.0000
 0.0000 0.0000
 0.0000 0.0000
 0.0000 0.0000
 0.0000 0.0000
 0.0000 0.0000
 0.0000 0.0000
 0.0000 0.0000
 0.0000 0.0000
 0.0000 0.0000
 0.0000 0.0000
 0.0000 0.0000
 0.0000 0.0000
 0.0000 0.0000
 0.0000 0.0000
 0.0000 0.0000
 0.0000 0.0000
 0.0000 0.0000
 0.0000 0.0000
 0.0000 0.0000
 0.0000 0.0000
 0.0000 0.0000
 0.0000 0.0000
 0.0000 0.0000
 0.0000 0.0000
 0.0000 0.0000
 0.0000 0.0000
 0.0000 0.0000
 0.0000 0.0000
 0.0000 0.0000
 0.0000 0.0000
 0.0000 0.0000
 0.0000 0.0000
 0.0000 0.0000
 0.0000 0.0000
 0.0000 0.0000
 0.0000 0.0000
 0.0000 0.0000
 0.0000 0.0000
 0.0000 0.0000
 0.0000 0.0000
 0.0000 0.0000
 0.0000 0.0000
 0.0000 0.0000
 0.0000 0.0000
 0.0000 0.0000
 0.0000 0.0000
 0.0000 0.0000
 0.0000 0.0000
 0.0000 0.0000
 0.0000 0.0000
 0.0000 0.0000
 0.0000 0.0000
 0.0000 0.0000
 0.0000 0.0000
 0.0000 0.0000
 0.0000 0.0000
 0.0000 0.0000
 0.0000 0.0000
 0.0000 0.0000
 0.0000 0.0000
 0.0000 0.0000
 0.0000 0.0000
 0.0000 0.0000
 0.0000 0.0000
 0.0000 0.0000
 0.0000 0.0000
 0.0000 0.0000
 0.0000 0.0000
 0.0000 0.0000
 0.0000 0.0000
 0.0000 0.0000
 0.0000 0.0000
 0.0000 0.0000
 0.0000 0.0000
 0.0000 0.0000
 0.0000 0.0000
 0.0000 0.0000
 0.0000 0.0000
 0.0000 0.0000
 0.0000 0.0000
 0.0000 0.0000
 0.0000 0.0000
 0.0000 0.0000
 0.0000 0.0000
 0.0000 0.0000
 0.0000 0.0000
 0.0000 0.0000
 0.0000 0.0000
 0.0000 0.0000
 0.0000 0.0000
 0.0000 0.0000
 0.0000 0.0000
 0.0000 0.0000
 0.0000 0.0000
 0.0000 0.0000
 0.0000 0.0000
 110.0                ! ANGINN : INNER ANGLE THRESHOLD
1                     ! NFFR - TOTAL NUMBER OF FORCING FREQUENCIES ON FLUX BOUNDARIES
 STEADY               ! CONSTITUENT. 1  ALPHA DESCRIPTOR
 0.00000E-00  1.0 0.0   ! CONSTITUENT. 1 FREQ., NODAL FACTOR, EQUIL. ARG.
 STEADY       ! ALPHA NUMERIC DESCRIPTION OF ELEVATION BOUNDARY FORCING
6.15621 0.0  ! Mississippi
7.5323 0.0
8.87942 0.0
10.2265 0.0
9.44434 0.0
10.0405 0.0
12.2807 0.0
12.0293 0.0
12.195 0.0
11.5259 0.0
10.5807 0.0
8.73499 0.0
6.8149 0.0
5.28002 0.0
4.23408 0.0
2.10847 0.0
1.93377 0.0
1.86135 0.0
1.86135 0.0
3.91759 0.0  ! Atchafalaya
3.91759 0.0
3.91759 0.0
3.91759 0.0
3.91759 0.0
3.91759 0.0
3.91759 0.0
3.91759 0.0
3.91759 0.0
3.91759 0.0
3.91759 0.0
3.91759 0.0
3.91759 0.0
%FORT61%            ! NOUTE,TOUTSE,TOUTFE,NSPOOLE:ELEV STATION OUTPUT INFO (UNIT  61)
 %NUMELEVSTATIONS%
%FORT62%             ! NOUTV,TOUTSV,TOUTFV,NSPOOLV:VEL STATION OUTPUT INFO (UNIT 62)
 %NUMVELSTATIONS%
 %FORT7172%          ! NOUTM,TOUTSM,TOUTFM,NSPOOLM: MET STATION OUTPUT INFO (UNITS 71 72 )
 %NUMMETSTATIONS%
%FORT63% ! NOUTGE,TOUTSGE,TOUTFGE,NSPOOLGE : GLOBAL ELEVATION OUTPUT INFO (UNIT  63)
%FORT64% ! NOUTGV,TOUTSGV,TOUTFGV,NSPOOLGV : GLOBAL VELOCITY  OUTPUT INFO (UNIT  64)    
%FORT7374% ! NOUTGM,TOUTSGM,TOUTFGM,NSPOOLGM : GLOBAL MET  OUTPUT INFO (UNIT  73,74)    
 0                          ! NHARFR - NUMBER OF CONSTITUENTS TO BE INCLUDED IN THE HARMONIC ANALYSIS
 40.0  50.0  5  0.0         ! THAS,THAF,NHAINC,FMV - HARMONIC ANALYSIS PARAMETERS    
 0 0 0 0                    ! NHASE,NHASV,NHAGE,NHAGV - CONTROL HARMONIC ANALYSIS AND OUTPUT TO UNITS 51,52,53,54
 %NHSTAR% %NHSINC%          ! NHSTAR,NHSINC - HOT START FILE GENERATION PARAMETERS 
 1  0  1.E-7  25 0          ! ITITER, ISLDIA, CONVCR, ITMAX & ILUMP
ASGS
US Army Corps of Engineers
ADCIRC Surge Guidance System
History
References
Comments
ERDC
Matches CF conventions as closely as possible
jason.fleming@seahorsecoastal.com
%StormName%
