 ASGS %StormName%
 %EnsembleID%
 1, 25.0, 1, 10, 100.0      ! NFOVER NONFATA OVERRIDE,WARNING ELEV, FORT.69, KILL RUN ELEV
 1                          ! NABOUT - ABREVIATED OUTPUT OPTION PARAMETER
-1000                       ! NSCREEN - OUTPUT TO UNIT 6 PARAMETER
%IHOT%                      ! IHOT - HOT START OPTION PARAMETER
 2                          ! ICS - COORDINATE SYSTEM OPTION PARAMETER
 0                          ! IM - MODEL RUN TYPE: 0,10,20,30 = 2DDI, 1,11,21,31 = 3D(VS), 2 = 3D(DSS)
 1                          ! NOLIBF - NONLINEAR BOTTOM FRICTION OPTION
 2                          ! NOLIFA - OPTION TO INCLUDE FINITE AMPLITUDE TERMS
 0                          ! NOLICA - OPTION TO INCLUDE CONVECTIVE ACCELERATION TERMS
 0                          ! NOLICAT - OPTION TO CONSIDER TIME DERIVATIVE OF CONV ACC TERMS
 8                          ! NWP - Number of nodal attributes.
sea_surface_height_above_geoid
elemental_slope_limiter
surface_submergence_state
primitive_weighting_in_continuity_equation
average_horizontal_eddy_viscosity_in_sea_water_wrt_depth
mannings_n_at_sea_floor
surface_canopy_coefficient
surface_directional_effective_roughness_length
 1                          ! NCOR - VARIABLE CORIOLIS IN SPACE OPTION PARAMETER
 1                          ! NTIP - TIDAL POTENTIAL OPTION PARAMETER
%NWS%                       ! NWS - WIND STRESS AND BAROMETRIC PRESSURE OPTION PARAMETER
 2                          ! NRAMP - RAMP FUNCTION OPTION
 9.81                       ! G - ACCELERATION DUE TO GRAVITY - DETERMINES UNITS
 -3.0                       ! TAU0 - WEIGHTING FACTOR IN GWCE
%DT%                        ! DT - TIME STEP (IN SECONDS)
 0.00                       ! STATIM - STARTING SIMULATION TIME IN DAYS
 0.00                       ! REFTIME - REFERENCE TIME (IN DAYS) FOR NODAL FACTORS AND EQUILIBRIUM ARGS
%WTIMINC%                   ! WTIMINC
%RNDAY%                     ! RNDAY - TOTAL LENGTH OF SIMULATION (IN DAYS)
 7.0 5.0 5.0                ! DRAMP - DURATION OF RAMP FUNCTION (IN DAYS)
 0.35 0.30 0.35             ! TIME WEIGHTING FACTORS FOR THE GWCE EQUATION
 0.10 0 0 0.01              ! H0,NODEDRYMIN,NODEWETMIN,VELMIN
 265.5 29.0                 ! SLAM0,SFEA0 - CENTER OF CPP PROJECTION (NOT USED IF ICS=1, NTIP=0, NCOR=0)
 0.0000 2.00 10.0 1.33333   ! FFACTOR,HBREAK,FTHETA,FGAMMA
 20.0                       ! ESLM - SPATIALLY CONSTANT HORIZONTAL EDDY VISCOSITY FOR THE MOMENTUM EQUATIONS
 0.0                        ! CORI - CONSTANT CORIOLIS COEFFICIENT
 8                          ! NTIF - TOTAL NUMBER OF TIDAL POTENTIAL CONSTITUENTS BE
 Q1                         ! ALPHANUMERIC DESCRIPTION
 0.019256  0.000064958541129   0.695  %Q1NF% %Q1EQARG%
 O1  
 0.100514  0.000067597744151   0.695  %O1NF% %O1EQARG%
 P1  
 0.046843  0.000072522945975   0.706  %P1NF% %P1EQARG%
 K1  
 0.141565  0.000072921158358   0.736  %K1NF% %K1EQARG%
 N2  
 0.046398  0.000137879699487   0.693  %N2NF% %N2EQARG%
 M2  
 0.242334  0.000140518902509   0.693  %M2NF% %M2EQARG%
 S2  
 0.112841  0.000145444104333   0.693  %S2NF% %S2EQARG%
 K2  
 0.030704  0.000145842317201   0.693  %K2NF% %K2EQARG%
 8                          ! NBFR - TOTAL NUMBER OF FORCING FREQUENCIES ON OPEN BOUNDARY
 Q1                         ! ALPHANUMERIC DESCRIPTION OF OPEN BOUNDARY FORCING DATA
 0.000064958541129  %Q1NF% %Q1EQARG%
 O1  
 0.000067597744151  %O1NF% %O1EQARG%
 P1  
 0.000072522945975  %P1NF% %P1EQARG%
 K1  
 0.000072921158358  %K1NF% %K1EQARG%
 N2  
 0.000137879699487  %N2NF% %N2EQARG%
 M2  
 0.000140518902509  %M2NF% %M2EQARG%
 S2  
 0.000145444104333  %S2NF% %S2EQARG%
 K2  
 0.000145842317201  %K2NF% %K2EQARG%
Q1
0.016000 -145.600000
0.016000 -145.600000
0.016000 -145.600000
0.016000 -145.600000
0.016000 -145.600000
0.016000 -145.600000
0.016000 -145.600000
0.016000 -145.600000
0.016000 -145.600000
0.016000 -145.600000
0.016000 -145.600000
0.016000 -145.600000
0.016000 -145.600000
0.016000 -145.600000
0.016000 -145.700000
0.016000 -145.800000
0.016000 -145.900000
0.016000 -146.100000
0.016000 -146.200000
0.016000 -146.300000
0.016000 -146.500000
0.016000 -146.600000
0.016000 -146.800000
0.016000 -146.900000
0.016000 -147.100000
0.016000 -147.200000
0.016000 -147.400000
0.016000 -147.600000
0.016000 -147.700000
0.016000 -147.800000
0.016000 -147.900000
0.016000 -148.000000
0.016000 -148.100000
0.016000 -148.200000
0.016000 -148.300000
0.016000 -148.400000
0.016000 -148.500000
0.016000 -148.600000
0.016000 -148.700000
0.016000 -148.900000
0.016000 -149.000000
0.016000 -149.100000
0.016000 -149.200000
0.015000 -149.300000
0.015000 -149.400000
0.015000 -149.500000
0.015000 -149.700000
0.015000 -149.800000
0.015000 -149.900000
0.015000 -150.000000
0.015000 -150.100000
0.015000 -150.200000
0.015000 -150.300000
0.015000 -150.400000
0.015000 -150.400000
0.015000 -150.500000
0.015000 -150.600000
0.015000 -150.700000
0.015000 -150.700000
0.015000 -150.800000
0.015000 -150.900000
0.015000 -151.000000
0.015000 -151.000000
0.015000 -151.100000
0.015000 -151.200000
0.015000 -151.300000
0.015000 -151.400000
0.015000 -151.400000
0.015000 -151.500000
0.015000 -151.500000
0.015000 -151.600000
0.015000 -151.700000
0.015000 -151.700000
0.015000 -151.800000
0.015000 -151.900000
0.015000 -152.000000
0.015000 -152.100000
0.015000 -152.100000
0.015000 -152.200000
0.015000 -152.300000
0.015000 -152.400000
0.015000 -152.500000
0.015000 -152.500000
0.015000 -152.600000
0.015000 -152.700000
0.015000 -152.800000
0.015000 -152.900000
0.015000 -152.900000
0.015000 -153.000000
0.015000 -153.100000
0.015000 -153.200000
0.015000 -153.200000
0.015000 -153.300000
0.015000 -153.300000
0.014000 -153.400000
0.014000 -153.400000
0.014000 -153.500000
0.014000 -153.500000
0.014000 -153.600000
0.014000 -153.600000
0.014000 -153.600000
0.014000 -153.700000
0.014000 -153.700000
0.014000 -153.700000
0.014000 -153.700000
0.014000 -153.800000
0.014000 -153.800000
0.014000 -153.800000
0.014000 -153.800000
0.014000 -153.900000
0.014000 -153.900000
0.014000 -153.900000
0.014000 -154.000000
0.014000 -154.000000
0.014000 -154.100000
0.014000 -154.100000
0.014000 -154.100000
0.013000 -154.200000
0.013000 -154.200000
0.013000 -154.200000
0.013000 -154.300000
0.013000 -154.400000
0.013000 -154.500000
0.013000 -154.700000
0.013000 -154.800000
0.013000 -155.000000
0.013000 -155.100000
0.013000 -155.300000
0.013000 -155.400000
0.013000 -155.500000
0.013000 -155.600000
0.013000 -155.800000
0.013000 -155.900000
0.013000 -156.100000
0.013000 -156.300000
0.013000 -156.500000
0.013000 -156.600000
0.013000 -156.800000
0.013000 -157.000000
0.013000 -157.100000
0.013000 -157.300000
0.013000 -157.500000
0.013000 -157.800000
0.013000 -158.000000
0.013000 -158.200000
0.013000 -158.400000
0.013000 -158.600000
0.013000 -158.800000
0.013000 -159.100000
0.013000 -159.300000
0.013000 -159.500000
0.013000 -159.700000
0.012000 -160.000000
0.012000 -160.200000
0.012000 -160.500000
0.012000 -160.800000
0.012000 -161.200000
0.012000 -161.500000
0.012000 -161.900000
0.012000 -162.300000
0.012000 -162.800000
0.012000 -163.200000
0.012000 -163.600000
0.012000 -164.100000
0.012000 -164.500000
0.012000 -165.000000
0.012000 -165.400000
0.011000 -165.800000
0.011000 -166.100000
0.011000 -166.500000
0.011000 -166.900000
0.011000 -167.200000
0.011000 -167.600000
0.011000 -168.000000
0.011000 -168.500000
0.011000 -168.900000
0.011000 -169.400000
0.011000 -169.900000
0.011000 -170.300000
0.011000 -170.800000
0.011000 -171.200000
0.011000 -171.600000
0.011000 -172.000000
0.011000 -172.400000
0.011000 -172.800000
0.011000 -173.100000
0.011000 -173.400000
0.010000 -173.700000
0.010000 -174.100000
0.010000 -174.400000
0.010000 -174.700000
0.010000 -175.000000
0.010000 -175.300000
0.010000 -175.700000
0.010000 -176.100000
0.010000 -176.500000
0.010000 -176.800000
0.010000 -177.200000
0.010000 -177.600000
0.010000 -178.000000
0.010000 -178.300000
0.010000 -178.600000
0.010000 -178.900000
0.010000 -179.200000
0.010000 -179.500000
0.010000 -179.900000
0.010000 179.800000
0.010000 179.500000
0.010000 179.200000
0.010000 178.800000
0.010000 178.500000
0.010000 178.100000
0.010000 177.600000
0.010000 177.200000
0.010000 176.700000
0.010000 176.200000
0.010000 175.600000
0.010000 175.100000
0.010000 174.500000
0.010000 174.000000
0.010000 173.500000
0.010000 172.900000
0.010000 172.400000
0.010000 171.800000
0.010000 171.300000
0.010000 170.700000
0.010000 170.100000
0.010000 169.400000
0.010000 168.700000
0.010000 168.100000
0.010000 167.500000
0.010000 167.000000
0.010000 166.500000
0.010000 165.900000
0.010000 165.500000
0.010000 165.100000
0.010000 164.700000
0.010000 164.200000
0.010000 163.700000
0.010000 163.200000
0.010000 162.700000
0.010000 162.200000
0.010000 161.600000
0.010000 161.100000
0.010000 160.500000
0.010000 160.000000
0.010000 159.500000
0.010000 159.100000
0.010000 158.600000
0.010000 158.300000
0.011000 157.900000
0.011000 157.700000
0.011000 157.400000
0.011000 157.200000
0.011000 157.000000
0.011000 156.900000
0.011000 156.700000
0.011000 156.600000
0.011000 156.500000
0.011000 156.400000
0.011000 156.200000
0.010000 156.400000
0.010000 156.600000
0.010000 156.900000
0.010000 157.200000
0.010000 157.400000
0.010000 159.800000
0.009000 162.400000
0.009000 165.200000
0.008000 168.200000
0.008000 171.400000
0.008000 174.600000
0.007000 175.400000
0.007000 176.200000
0.007000 177.100000
0.007000 178.100000
0.007000 179.100000
0.007000 -179.800000
0.006000 -178.700000
0.006000 -177.600000
0.006000 -176.300000
0.006000 -175.000000
0.006000 -173.500000
0.006000 -171.900000
0.006000 -170.100000
0.006000 -168.400000
0.005000 -166.500000
0.005000 -164.700000
0.005000 -163.100000
0.005000 -161.500000
0.005000 -159.900000
0.005000 -158.300000
0.005000 -156.700000
0.005000 -154.800000
0.005000 -152.700000
0.005000 -150.600000
0.005000 -148.400000
0.005000 -146.200000
0.005000 -144.100000
0.005000 -142.000000
0.005000 -140.000000
0.006000 -138.100000
0.006000 -136.300000
0.006000 -134.500000
0.006000 -132.400000
0.006000 -130.500000
0.006000 -128.700000
0.006000 -127.100000
0.006000 -125.700000
0.006000 -124.400000
0.006000 -123.200000
0.007000 -123.100000
0.007000 -123.000000
O1
0.084000 -124.500000
0.084000 -124.500000
0.084000 -124.500000
0.084000 -124.500000
0.084000 -124.500000
0.084000 -124.500000
0.084000 -124.500000
0.084000 -124.500000
0.084000 -124.500000
0.084000 -124.500000
0.084000 -124.500000
0.084000 -124.500000
0.084000 -124.500000
0.084000 -124.500000
0.084000 -124.600000
0.084000 -124.700000
0.083000 -124.800000
0.083000 -125.000000
0.083000 -125.100000
0.083000 -125.200000
0.083000 -125.400000
0.083000 -125.500000
0.083000 -125.700000
0.083000 -125.800000
0.082000 -126.000000
0.082000 -126.100000
0.082000 -126.300000
0.082000 -126.500000
0.082000 -126.600000
0.082000 -126.700000
0.082000 -126.800000
0.082000 -126.900000
0.081000 -127.000000
0.081000 -127.100000
0.081000 -127.200000
0.081000 -127.300000
0.081000 -127.400000
0.081000 -127.500000
0.081000 -127.600000
0.080000 -127.700000
0.080000 -127.900000
0.080000 -128.000000
0.080000 -128.100000
0.080000 -128.200000
0.080000 -128.300000
0.080000 -128.400000
0.079000 -128.500000
0.079000 -128.600000
0.079000 -128.800000
0.079000 -128.900000
0.079000 -129.000000
0.079000 -129.100000
0.079000 -129.200000
0.079000 -129.200000
0.079000 -129.300000
0.078000 -129.400000
0.078000 -129.500000
0.078000 -129.500000
0.078000 -129.600000
0.078000 -129.700000
0.078000 -129.800000
0.078000 -129.800000
0.078000 -129.900000
0.078000 -130.000000
0.078000 -130.100000
0.078000 -130.200000
0.077000 -130.300000
0.077000 -130.300000
0.077000 -130.400000
0.077000 -130.400000
0.077000 -130.500000
0.077000 -130.500000
0.077000 -130.600000
0.077000 -130.700000
0.077000 -130.800000
0.077000 -130.800000
0.076000 -130.900000
0.076000 -131.000000
0.076000 -131.100000
0.076000 -131.100000
0.076000 -131.200000
0.076000 -131.300000
0.076000 -131.400000
0.076000 -131.500000
0.076000 -131.500000
0.075000 -131.600000
0.075000 -131.700000
0.075000 -131.800000
0.075000 -131.900000
0.075000 -131.900000
0.075000 -132.000000
0.075000 -132.000000
0.074000 -132.100000
0.074000 -132.200000
0.074000 -132.200000
0.074000 -132.200000
0.074000 -132.300000
0.074000 -132.300000
0.073000 -132.400000
0.073000 -132.400000
0.073000 -132.500000
0.073000 -132.500000
0.073000 -132.600000
0.073000 -132.600000
0.072000 -132.600000
0.072000 -132.700000
0.072000 -132.700000
0.072000 -132.800000
0.072000 -132.800000
0.071000 -132.900000
0.071000 -132.900000
0.071000 -133.000000
0.071000 -133.100000
0.070000 -133.100000
0.070000 -133.200000
0.070000 -133.200000
0.070000 -133.300000
0.069000 -133.300000
0.069000 -133.400000
0.069000 -133.500000
0.068000 -133.500000
0.068000 -133.700000
0.068000 -133.800000
0.068000 -134.000000
0.067000 -134.200000
0.067000 -134.400000
0.067000 -134.500000
0.067000 -134.700000
0.067000 -134.900000
0.066000 -135.000000
0.066000 -135.200000
0.066000 -135.400000
0.066000 -135.600000
0.066000 -135.800000
0.065000 -136.000000
0.065000 -136.100000
0.065000 -136.300000
0.065000 -136.500000
0.064000 -136.700000
0.064000 -136.900000
0.064000 -137.100000
0.064000 -137.300000
0.063000 -137.500000
0.063000 -137.700000
0.063000 -137.900000
0.062000 -138.100000
0.062000 -138.300000
0.062000 -138.500000
0.061000 -138.800000
0.061000 -139.000000
0.061000 -139.200000
0.060000 -139.400000
0.060000 -139.600000
0.060000 -139.900000
0.059000 -140.100000
0.059000 -140.400000
0.059000 -140.800000
0.058000 -141.100000
0.058000 -141.500000
0.057000 -141.900000
0.057000 -142.400000
0.056000 -142.900000
0.056000 -143.300000
0.055000 -143.800000
0.055000 -144.300000
0.055000 -144.800000
0.054000 -145.300000
0.054000 -145.700000
0.053000 -146.200000
0.053000 -146.600000
0.053000 -147.000000
0.052000 -147.500000
0.052000 -147.900000
0.052000 -148.400000
0.051000 -148.900000
0.051000 -149.500000
0.051000 -150.100000
0.050000 -150.600000
0.050000 -151.200000
0.050000 -151.800000
0.049000 -152.300000
0.049000 -152.800000
0.049000 -153.300000
0.049000 -153.800000
0.048000 -154.300000
0.048000 -154.700000
0.048000 -155.200000
0.048000 -155.600000
0.048000 -156.000000
0.048000 -156.400000
0.047000 -156.700000
0.047000 -157.200000
0.047000 -157.600000
0.047000 -158.000000
0.047000 -158.500000
0.047000 -159.000000
0.047000 -159.500000
0.046000 -160.000000
0.046000 -160.500000
0.046000 -161.000000
0.046000 -161.400000
0.046000 -161.800000
0.046000 -162.200000
0.046000 -162.600000
0.046000 -163.000000
0.046000 -163.400000
0.046000 -163.800000
0.046000 -164.200000
0.045000 -164.600000
0.045000 -165.000000
0.045000 -165.500000
0.045000 -166.000000
0.045000 -166.500000
0.045000 -167.100000
0.045000 -167.700000
0.045000 -168.300000
0.045000 -168.900000
0.045000 -169.500000
0.045000 -170.200000
0.045000 -170.800000
0.045000 -171.400000
0.045000 -172.000000
0.045000 -172.500000
0.045000 -173.100000
0.045000 -173.700000
0.045000 -174.300000
0.045000 -174.900000
0.045000 -175.500000
0.045000 -176.200000
0.046000 -176.800000
0.046000 -177.300000
0.046000 -177.700000
0.046000 -178.200000
0.046000 -178.600000
0.046000 -178.900000
0.046000 -179.200000
0.047000 -179.600000
0.047000 -179.900000
0.047000 179.700000
0.047000 179.400000
0.047000 179.000000
0.048000 178.600000
0.048000 178.200000
0.048000 177.900000
0.049000 177.500000
0.049000 177.200000
0.049000 176.800000
0.050000 176.500000
0.050000 176.100000
0.051000 175.700000
0.051000 175.400000
0.051000 175.100000
0.051000 174.800000
0.052000 174.500000
0.052000 174.200000
0.052000 174.000000
0.052000 173.700000
0.052000 173.500000
0.052000 173.200000
0.052000 172.900000
0.051000 172.700000
0.051000 172.500000
0.050000 172.500000
0.049000 172.400000
0.048000 172.300000
0.048000 172.300000
0.043000 173.100000
0.039000 174.100000
0.035000 175.400000
0.031000 176.800000
0.027000 178.700000
0.023000 -179.100000
0.022000 -179.200000
0.020000 -179.300000
0.018000 -179.400000
0.016000 -179.500000
0.015000 -179.700000
0.013000 -179.900000
0.011000 -179.400000
0.009000 -178.600000
0.008000 -177.300000
0.006000 -175.200000
0.004000 -171.200000
0.003000 -156.200000
0.002000 -119.900000
0.002000 -75.500000
0.003000 -53.000000
0.005000 -42.800000
0.006000 -41.600000
0.008000 -40.900000
0.009000 -40.400000
0.010000 -40.100000
0.012000 -39.800000
0.013000 -41.000000
0.014000 -42.400000
0.016000 -43.600000
0.017000 -44.500000
0.019000 -45.400000
0.020000 -47.100000
0.021000 -49.600000
0.022000 -51.800000
0.024000 -53.800000
0.025000 -55.600000
0.026000 -56.900000
0.025000 -54.700000
0.025000 -52.700000
0.025000 -50.700000
0.026000 -48.900000
0.026000 -47.200000
0.026000 -45.600000
0.026000 -44.100000
0.026000 -44.000000
0.026000 -44.200000
P1
0.032000 -113.300000
0.032000 -113.300000
0.032000 -113.300000
0.032000 -113.300000
0.032000 -113.300000
0.032000 -113.300000
0.032000 -113.300000
0.032000 -113.300000
0.032000 -113.300000
0.032000 -113.300000
0.032000 -113.300000
0.032000 -113.300000
0.032000 -113.300000
0.032000 -113.300000
0.032000 -113.400000
0.032000 -113.600000
0.032000 -113.700000
0.032000 -113.900000
0.032000 -114.000000
0.032000 -114.200000
0.032000 -114.300000
0.032000 -114.500000
0.032000 -114.700000
0.032000 -114.800000
0.032000 -115.000000
0.032000 -115.200000
0.032000 -115.300000
0.032000 -115.500000
0.032000 -115.600000
0.032000 -115.700000
0.032000 -115.900000
0.032000 -116.000000
0.032000 -116.100000
0.032000 -116.200000
0.032000 -116.300000
0.032000 -116.400000
0.032000 -116.500000
0.032000 -116.700000
0.032000 -116.800000
0.031000 -116.900000
0.031000 -117.000000
0.031000 -117.200000
0.031000 -117.300000
0.031000 -117.400000
0.031000 -117.500000
0.031000 -117.600000
0.031000 -117.800000
0.031000 -117.900000
0.031000 -118.000000
0.031000 -118.100000
0.031000 -118.300000
0.031000 -118.400000
0.031000 -118.500000
0.031000 -118.500000
0.031000 -118.600000
0.031000 -118.700000
0.031000 -118.800000
0.031000 -118.900000
0.031000 -119.000000
0.031000 -119.000000
0.031000 -119.100000
0.030000 -119.200000
0.030000 -119.300000
0.030000 -119.400000
0.030000 -119.500000
0.030000 -119.600000
0.030000 -119.700000
0.030000 -119.700000
0.030000 -119.800000
0.030000 -119.900000
0.030000 -119.900000
0.030000 -120.000000
0.030000 -120.100000
0.030000 -120.200000
0.030000 -120.200000
0.030000 -120.300000
0.030000 -120.400000
0.030000 -120.500000
0.030000 -120.600000
0.030000 -120.700000
0.030000 -120.800000
0.030000 -120.900000
0.030000 -121.000000
0.030000 -121.100000
0.030000 -121.100000
0.029000 -121.200000
0.029000 -121.300000
0.029000 -121.400000
0.029000 -121.500000
0.029000 -121.600000
0.029000 -121.700000
0.029000 -121.700000
0.029000 -121.800000
0.029000 -121.900000
0.029000 -121.900000
0.029000 -122.000000
0.029000 -122.000000
0.029000 -122.100000
0.029000 -122.200000
0.029000 -122.200000
0.029000 -122.300000
0.029000 -122.400000
0.029000 -122.400000
0.029000 -122.500000
0.029000 -122.500000
0.028000 -122.600000
0.028000 -122.700000
0.028000 -122.800000
0.028000 -122.900000
0.028000 -122.900000
0.028000 -123.000000
0.028000 -123.100000
0.028000 -123.200000
0.028000 -123.300000
0.028000 -123.400000
0.028000 -123.500000
0.028000 -123.600000
0.027000 -123.700000
0.027000 -123.800000
0.027000 -123.900000
0.027000 -124.100000
0.027000 -124.300000
0.027000 -124.500000
0.027000 -124.700000
0.027000 -125.000000
0.027000 -125.200000
0.026000 -125.500000
0.026000 -125.800000
0.026000 -126.100000
0.026000 -126.300000
0.026000 -126.600000
0.026000 -126.900000
0.026000 -127.200000
0.026000 -127.500000
0.026000 -127.800000
0.026000 -128.100000
0.025000 -128.400000
0.025000 -128.700000
0.025000 -129.000000
0.025000 -129.300000
0.025000 -129.600000
0.025000 -129.900000
0.025000 -130.300000
0.025000 -130.600000
0.024000 -131.000000
0.024000 -131.300000
0.024000 -131.700000
0.024000 -132.100000
0.024000 -132.500000
0.024000 -132.900000
0.024000 -133.300000
0.023000 -133.700000
0.023000 -134.100000
0.023000 -134.500000
0.023000 -135.000000
0.023000 -135.600000
0.023000 -136.200000
0.022000 -136.800000
0.022000 -137.500000
0.022000 -138.300000
0.022000 -139.000000
0.021000 -139.800000
0.021000 -140.700000
0.021000 -141.500000
0.021000 -142.400000
0.020000 -143.200000
0.020000 -144.000000
0.020000 -144.700000
0.020000 -145.400000
0.020000 -146.100000
0.020000 -146.800000
0.019000 -147.500000
0.019000 -148.300000
0.019000 -149.100000
0.019000 -149.900000
0.019000 -150.800000
0.019000 -151.700000
0.019000 -152.600000
0.018000 -153.500000
0.018000 -154.400000
0.018000 -155.200000
0.018000 -156.100000
0.018000 -156.800000
0.018000 -157.600000
0.018000 -158.300000
0.018000 -159.000000
0.018000 -159.600000
0.018000 -160.200000
0.018000 -160.800000
0.018000 -161.400000
0.018000 -162.000000
0.018000 -162.600000
0.017000 -163.200000
0.017000 -163.900000
0.017000 -164.600000
0.017000 -165.300000
0.017000 -166.000000
0.017000 -166.700000
0.017000 -167.400000
0.017000 -168.000000
0.017000 -168.600000
0.017000 -169.100000
0.017000 -169.600000
0.017000 -170.100000
0.017000 -170.700000
0.017000 -171.200000
0.017000 -171.700000
0.017000 -172.200000
0.017000 -172.700000
0.017000 -173.300000
0.017000 -173.800000
0.017000 -174.500000
0.017000 -175.100000
0.017000 -175.800000
0.017000 -176.500000
0.017000 -177.200000
0.018000 -178.000000
0.018000 -178.700000
0.018000 -179.400000
0.018000 179.900000
0.018000 179.200000
0.018000 178.500000
0.018000 177.900000
0.018000 177.300000
0.018000 176.600000
0.018000 176.000000
0.018000 175.400000
0.018000 174.700000
0.019000 174.100000
0.019000 173.500000
0.019000 172.900000
0.019000 172.500000
0.019000 172.100000
0.019000 171.700000
0.019000 171.400000
0.019000 171.100000
0.019000 170.800000
0.020000 170.500000
0.020000 170.200000
0.020000 169.900000
0.020000 169.600000
0.020000 169.300000
0.020000 169.000000
0.020000 168.700000
0.021000 168.500000
0.021000 168.300000
0.021000 168.200000
0.021000 168.000000
0.021000 167.900000
0.021000 167.800000
0.022000 167.700000
0.022000 167.600000
0.022000 167.500000
0.022000 167.400000
0.022000 167.300000
0.022000 167.200000
0.022000 167.100000
0.022000 167.000000
0.022000 166.900000
0.022000 166.800000
0.022000 166.700000
0.022000 166.600000
0.022000 166.400000
0.021000 166.200000
0.021000 166.100000
0.021000 166.000000
0.019000 164.800000
0.018000 163.400000
0.016000 161.800000
0.015000 159.900000
0.014000 157.800000
0.013000 155.400000
0.012000 153.600000
0.012000 151.700000
0.011000 149.700000
0.011000 147.500000
0.011000 145.000000
0.010000 142.300000
0.010000 139.800000
0.010000 137.200000
0.009000 134.200000
0.009000 131.000000
0.009000 127.400000
0.009000 124.000000
0.008000 120.400000
0.008000 116.700000
0.008000 112.900000
0.008000 108.900000
0.008000 105.600000
0.007000 102.100000
0.007000 98.700000
0.007000 95.200000
0.007000 91.700000
0.007000 87.700000
0.007000 83.300000
0.007000 78.700000
0.007000 74.000000
0.007000 69.300000
0.007000 64.600000
0.007000 60.000000
0.007000 55.600000
0.007000 51.400000
0.008000 47.600000
0.008000 43.900000
0.008000 39.700000
0.008000 36.100000
0.009000 32.800000
0.009000 30.100000
0.009000 27.700000
0.010000 25.500000
0.010000 23.700000
0.010000 23.000000
0.010000 22.500000
K1
0.101000 -113.500000
0.101000 -113.500000
0.101000 -113.500000
0.101000 -113.500000
0.101000 -113.500000
0.101000 -113.500000
0.101000 -113.500000
0.101000 -113.500000
0.101000 -113.500000
0.101000 -113.500000
0.101000 -113.500000
0.101000 -113.500000
0.101000 -113.500000
0.101000 -113.500000
0.101000 -113.600000
0.101000 -113.700000
0.101000 -113.900000
0.100000 -114.000000
0.100000 -114.100000
0.100000 -114.300000
0.100000 -114.400000
0.100000 -114.500000
0.100000 -114.700000
0.100000 -114.800000
0.099000 -115.000000
0.099000 -115.100000
0.099000 -115.300000
0.099000 -115.400000
0.099000 -115.500000
0.099000 -115.600000
0.098000 -115.700000
0.098000 -115.800000
0.098000 -115.900000
0.098000 -116.000000
0.098000 -116.100000
0.097000 -116.300000
0.097000 -116.400000
0.097000 -116.400000
0.097000 -116.600000
0.097000 -116.700000
0.096000 -116.800000
0.096000 -116.900000
0.096000 -117.000000
0.096000 -117.100000
0.096000 -117.300000
0.096000 -117.400000
0.095000 -117.500000
0.095000 -117.600000
0.095000 -117.700000
0.095000 -117.800000
0.095000 -117.900000
0.094000 -118.100000
0.094000 -118.100000
0.094000 -118.200000
0.094000 -118.300000
0.094000 -118.400000
0.094000 -118.500000
0.094000 -118.600000
0.094000 -118.600000
0.093000 -118.700000
0.093000 -118.800000
0.093000 -118.900000
0.093000 -119.000000
0.093000 -119.100000
0.093000 -119.200000
0.093000 -119.300000
0.092000 -119.300000
0.092000 -119.400000
0.092000 -119.500000
0.092000 -119.500000
0.092000 -119.600000
0.092000 -119.700000
0.092000 -119.700000
0.092000 -119.800000
0.091000 -119.900000
0.091000 -120.000000
0.091000 -120.100000
0.091000 -120.200000
0.091000 -120.300000
0.091000 -120.400000
0.091000 -120.500000
0.090000 -120.600000
0.090000 -120.700000
0.090000 -120.800000
0.090000 -120.900000
0.090000 -121.000000
0.090000 -121.000000
0.090000 -121.100000
0.089000 -121.200000
0.089000 -121.300000
0.089000 -121.400000
0.089000 -121.500000
0.089000 -121.600000
0.089000 -121.700000
0.088000 -121.800000
0.088000 -121.800000
0.088000 -121.900000
0.088000 -122.000000
0.088000 -122.100000
0.088000 -122.100000
0.087000 -122.200000
0.087000 -122.300000
0.087000 -122.400000
0.087000 -122.500000
0.087000 -122.600000
0.087000 -122.700000
0.086000 -122.700000
0.086000 -122.900000
0.086000 -123.000000
0.086000 -123.100000
0.086000 -123.200000
0.085000 -123.300000
0.085000 -123.500000
0.085000 -123.600000
0.084000 -123.700000
0.084000 -123.800000
0.084000 -124.000000
0.083000 -124.100000
0.083000 -124.200000
0.083000 -124.300000
0.082000 -124.400000
0.082000 -124.600000
0.081000 -124.800000
0.081000 -125.000000
0.080000 -125.200000
0.080000 -125.400000
0.079000 -125.600000
0.079000 -125.800000
0.079000 -126.000000
0.078000 -126.200000
0.078000 -126.400000
0.078000 -126.600000
0.078000 -126.800000
0.077000 -127.100000
0.077000 -127.400000
0.076000 -127.700000
0.076000 -128.000000
0.076000 -128.300000
0.075000 -128.600000
0.075000 -128.900000
0.074000 -129.200000
0.074000 -129.600000
0.074000 -129.900000
0.073000 -130.300000
0.073000 -130.600000
0.072000 -131.000000
0.072000 -131.400000
0.071000 -131.800000
0.071000 -132.200000
0.070000 -132.600000
0.070000 -133.000000
0.069000 -133.400000
0.069000 -133.800000
0.068000 -134.300000
0.068000 -134.800000
0.067000 -135.400000
0.066000 -136.000000
0.066000 -136.700000
0.065000 -137.400000
0.064000 -138.200000
0.064000 -139.000000
0.063000 -139.800000
0.062000 -140.700000
0.062000 -141.600000
0.061000 -142.400000
0.061000 -143.300000
0.060000 -144.100000
0.060000 -144.900000
0.059000 -145.600000
0.059000 -146.300000
0.058000 -147.000000
0.058000 -147.800000
0.058000 -148.600000
0.057000 -149.400000
0.057000 -150.300000
0.056000 -151.200000
0.056000 -152.100000
0.055000 -153.100000
0.055000 -154.000000
0.055000 -154.900000
0.054000 -155.800000
0.054000 -156.700000
0.054000 -157.500000
0.054000 -158.300000
0.053000 -159.000000
0.053000 -159.700000
0.053000 -160.400000
0.053000 -161.000000
0.053000 -161.700000
0.053000 -162.300000
0.053000 -162.900000
0.052000 -163.500000
0.052000 -164.200000
0.052000 -164.900000
0.052000 -165.600000
0.052000 -166.400000
0.052000 -167.100000
0.052000 -167.900000
0.052000 -168.600000
0.052000 -169.200000
0.052000 -169.800000
0.052000 -170.400000
0.052000 -171.000000
0.052000 -171.500000
0.052000 -172.100000
0.052000 -172.600000
0.052000 -173.100000
0.052000 -173.700000
0.053000 -174.300000
0.053000 -174.900000
0.053000 -175.500000
0.053000 -176.100000
0.053000 -176.900000
0.053000 -177.600000
0.053000 -178.400000
0.054000 -179.200000
0.054000 -180.000000
0.054000 179.200000
0.054000 178.400000
0.055000 177.600000
0.055000 176.800000
0.055000 176.100000
0.055000 175.300000
0.056000 174.600000
0.056000 173.900000
0.056000 173.200000
0.056000 172.400000
0.057000 171.600000
0.057000 170.900000
0.058000 170.100000
0.058000 169.500000
0.058000 169.000000
0.058000 168.500000
0.059000 168.000000
0.059000 167.600000
0.059000 167.200000
0.059000 166.900000
0.060000 166.500000
0.060000 166.100000
0.060000 165.700000
0.061000 165.400000
0.061000 165.000000
0.061000 164.700000
0.062000 164.400000
0.062000 164.200000
0.062000 164.000000
0.063000 163.900000
0.063000 163.800000
0.064000 163.700000
0.064000 163.600000
0.065000 163.500000
0.065000 163.400000
0.065000 163.300000
0.066000 163.200000
0.066000 163.100000
0.066000 162.900000
0.066000 162.800000
0.066000 162.600000
0.066000 162.400000
0.066000 162.100000
0.066000 161.900000
0.066000 161.600000
0.065000 161.300000
0.064000 160.900000
0.063000 160.500000
0.063000 160.200000
0.058000 158.000000
0.054000 155.500000
0.049000 152.600000
0.045000 149.300000
0.042000 145.500000
0.038000 141.300000
0.037000 138.700000
0.036000 136.000000
0.036000 133.000000
0.035000 130.000000
0.034000 126.600000
0.034000 123.000000
0.033000 119.900000
0.033000 116.700000
0.032000 113.300000
0.032000 109.600000
0.032000 105.800000
0.031000 102.200000
0.031000 98.600000
0.031000 94.900000
0.031000 91.300000
0.031000 87.700000
0.030000 84.600000
0.030000 81.400000
0.030000 78.200000
0.029000 75.100000
0.029000 72.000000
0.029000 68.600000
0.028000 64.900000
0.028000 60.900000
0.027000 56.800000
0.027000 52.600000
0.027000 48.800000
0.025000 45.500000
0.024000 41.900000
0.023000 38.000000
0.022000 33.900000
0.021000 30.100000
0.022000 34.400000
0.022000 38.300000
0.023000 41.700000
0.024000 44.800000
0.024000 47.400000
0.025000 49.800000
0.026000 52.000000
0.026000 51.600000
0.026000 50.800000
N2
0.110000 -149.900000
0.110000 -149.900000
0.110000 -149.900000
0.110000 -149.900000
0.110000 -149.900000
0.110000 -149.900000
0.110000 -149.900000
0.110000 -149.900000
0.110000 -149.900000
0.110000 -149.900000
0.110000 -149.900000
0.110000 -149.900000
0.110000 -149.900000
0.110000 -149.900000
0.109000 -150.000000
0.109000 -150.200000
0.108000 -150.400000
0.108000 -150.500000
0.107000 -150.700000