ASGS %StormName%          ! 30 CHARACTER ALPHANUM RUN DESCRIPTION
%EnsembleID%              ! 20 CHARACTER ALPANUMERIC RUN IDENTIFICATION
1 20.0 1 20 100.0         ! NFOVER - NONFATAL ERROR OVERRIDE 
1                         ! NABOUT - ABREVIATED OUTPUT
-1000                     ! NSCREEN - UNIT 6 
%IHOT%                    ! IHOT - HOT START 
2                         ! ICS - COORDINATE SYSTEM 
111112                    ! IM - MODEL TYPE  jgf20140502: corrected 111122 
1                         ! NOLIBF - BOTTOM FRICTION TERM 
2                         ! NOLIFA - FINITE AMPLITUDE TERM 
1                         ! NOLICA - SPATIAL DERIVATIVE PORTION OF CONV. TERM
1                         ! NOLICAT - TIME DERIVATIVE PORTION OF CONVECTIVE TERM
8                         ! NWP jgf20140502:turned off wave refraction in swan
mannings_n_at_sea_floor
primitive_weighting_in_continuity_equation
average_horizontal_eddy_viscosity_in_sea_water_wrt_depth
sea_surface_height_above_geoid
surface_directional_effective_roughness_length
surface_canopy_coefficient
initial_river_elevation
advection_state
1                         ! NCOR - VARIABLE CORIOLIS IN SPACE 
1                         ! NTIP - TIDAL POTENTIAL 
%NWS%                     ! NWS - WIND STRESS AND BAROMETRIC PRESSURE 
1                         ! NRAMP - RAMP FUNCTION OPTION
9.81                      ! G - ACCELERATION DUE TO GRAVITY - DETERMINES UNITS
-3                        ! TAU0 - WEIGHTING FACTOR IN GWCE
%DT%                      ! DT - TIME STEP (IN SECONDS) jgf20140502: 0.5s
0.0                       ! STATIM - STARTING TIME (IN DAYS)
0.0                       ! REFTIM - REFERENCE TIME (IN DAYS)
%WTIMINC%                 ! WTIMINC, RSTIMINC (IN SECONDS)
%RNDAY%                   ! RNDAY - TOTAL LENGTH OF SIMULATION (IN DAYS)
7.0                       ! DRAMP - DURATION OF RAMP FUNCTION (IN DAYS)
0.0 1.0 0.0               ! TIME WEIGHTING FACTORS FOR THE GWCE EQUATION
0.1 0 0 .01               ! H0 - MINIMUM CUTOFF DEPTH
-79.0 35.0                ! SLAM0,SFEA0 - CENTER OF CPP DEGREES LONG/LAT
0.001  1. 10. 0.33333     ! FFACTOR - BOTTOM FRICTION COEFFICIENT
2.0                       ! ESL - LATERAL EDDY VISCOSITY COEFFICIENT
0.0                       ! CORI - CORIOLIS PARAMETER - IGNORED IF NCOR = 1
7                         ! NTIF
M2      
 0.242334  1.405174E-004 0.693000 %M2NF%  %M2EQARG%
S2  
 0.112841  1.454426E-004 0.693000 %S2NF%  %S2EQARG%
N2 
 0.046398  1.378783E-004 0.693000 %N2NF%  %N2EQARG%
K2 
 0.030704  1.458408E-004 0.693000 %K2NF%  %K2EQARG%
K1  
 0.141565  7.292040E-005 0.736000 %K1NF%  %K1EQARG%
O1   
 0.100514  6.759704E-005 0.695000 %O1NF%  %O1EQARG%
Q1 
 0.019256 6.495787E-005 0.695000  %Q1NF%  %Q1EQARG% 
7  !  NBFR - TOTAL NUMBER OF FORCING FREQUENCIES ON OPEN BOUNDARIES
M2 
 1.405174E-004  %M2NF%  %M2EQARG%
S2 
 1.454426E-004  %S2NF%  %S2EQARG%
N2 
 1.378783E-004  %N2NF%  %N2EQARG%
K2 
 1.458408E-004  %K2NF%  %K2EQARG%
K1 
 7.292040E-005  %K1NF%  %K1EQARG% 
O1 
 6.759704E-005  %O1NF%  %O1EQARG%
Q1 
 6.495787E-005  %Q1NF%  %Q1EQARG%
M2
  0.534000   -139.0000
  0.525000   -138.5000
  0.514000   -138.6000
  0.479000   -139.9000
  0.453000   -140.6000
  0.422000   -141.5000
  0.407000   -142.1000
  0.394000   -142.6000
  0.371000   -143.6000
  0.352000   -144.2000
  0.337000   -144.5000
  0.326000   -144.8000
  0.315000   -145.0000
  0.303000   -145.1000
  0.292000   -145.2000
  0.282000   -145.2000
  0.272000   -145.2000
  0.250000   -144.9000
  0.235000   -144.5000
  0.223000   -144.1000
  0.210000   -143.6000
  0.196000   -143.1000
  0.185000   -142.6000
  0.173000   -141.8000
  0.162000   -140.7000
  0.154000   -139.3000
  0.145000   -137.7000
  0.136000   -135.9000
  0.128000   -133.9000
  0.119000   -131.5000
  0.110000   -128.6000
  0.100000   -125.0000
  0.092000   -120.7000
  0.084000   -115.5000
  0.076000   -109.2000
  0.069000   -101.5000
  0.064000    -92.5000
  0.060000    -77.1000
  0.062000    -59.9000
  0.072000    -42.2000
  0.086000    -30.2000
  0.101000    -23.0000
  0.118000    -17.8000
  0.136000    -14.3000
  0.151000    -12.0000
  0.166000    -10.4000
  0.183000     -8.9000
  0.199000     -7.8000
  0.216000     -7.0000
  0.231000     -6.4000
  0.245000     -5.9000
  0.259000     -5.6000
  0.272000     -5.3000
  0.284000     -5.1000
  0.297000     -5.1000
  0.309000     -5.2000
  0.319000     -5.3000
  0.330000     -5.4000
  0.338000     -5.6000
  0.347000     -5.8000
  0.355000     -6.1000
  0.362000     -6.5000
  0.371000     -7.0000
  0.379000     -7.5000
  0.385000     -8.2000
  0.392000     -8.9000
  0.395000     -9.2000
  0.398000     -9.6000
  0.402000    -10.1000
  0.405000    -10.5000
  0.409000    -11.0000
  0.413000    -11.6000
  0.416000    -12.2000
  0.420000    -12.8000
  0.423000    -13.5000
  0.426000    -14.2000
  0.429000    -15.0000
  0.430000    -15.6000
  0.437000    -16.4000
  0.454000    -16.7000
  0.514000    -11.9000
  0.532000     -8.6000
  0.535000     -8.8000
  0.536000     -9.5000
  0.538000    -10.1000
  0.542000    -10.3000
  0.544000    -10.6000
  0.544000    -10.8000
  0.545000    -11.1000
  0.545000    -11.4000
  0.544000    -11.7000
  0.543000    -12.0000
  0.541000    -12.2000
  0.540000    -12.4000
  0.538000    -12.7000
  0.535000    -13.0000
  0.532000    -13.3000
  0.529000    -13.7000
  0.526000    -14.1000
  0.523000    -14.5000
  0.518000    -15.0000
  0.515000    -15.3000
  0.513000    -15.4000
S2
  0.212000   -108.7000
  0.214000   -109.2000
  0.208000   -109.9000
  0.183000   -113.3000
  0.166000   -114.4000
  0.149000   -116.0000
  0.140000   -117.2000
  0.133000   -118.3000
  0.122000   -120.1000
  0.114000   -121.1000
  0.108000   -121.6000
  0.104000   -121.8000
  0.100000   -121.9000
  0.097000   -122.0000
  0.093000   -121.9000
  0.090000   -121.8000
  0.086000   -121.6000
  0.079000   -120.9000
  0.075000   -120.2000
  0.071000   -119.4000
  0.067000   -118.6000
  0.063000   -118.0000
  0.060000   -117.6000
  0.057000   -117.2000
  0.054000   -117.1000
  0.051000   -116.7000
  0.049000   -116.0000
  0.046000   -115.2000
  0.044000   -114.2000
  0.041000   -113.0000
  0.039000   -111.7000
  0.036000   -110.0000
  0.033000   -107.9000
  0.030000   -105.2000
  0.027000   -101.9000
  0.025000    -97.7000
  0.022000    -92.5000
  0.020000    -82.9000
  0.018000    -69.7000
  0.017000    -50.3000
  0.018000    -32.2000
  0.020000    -18.9000
  0.024000     -8.1000
  0.027000     -0.8000
  0.031000      3.9000
  0.035000      7.5000
  0.039000     10.7000
  0.043000     13.2000
  0.047000     15.1000
  0.051000     16.6000
  0.054000     17.7000
  0.058000     18.6000
  0.061000     19.3000
  0.064000     19.9000
  0.067000     20.4000
  0.071000     20.9000
  0.073000     21.2000
  0.076000     21.4000
  0.078000     21.6000
  0.080000     21.6000
  0.082000     21.6000
  0.084000     21.4000
  0.086000     21.1000
  0.088000     20.7000
  0.089000     20.3000
  0.090000     19.9000
  0.091000     19.6000
  0.092000     19.3000
  0.092000     18.9000
  0.093000     18.6000
  0.094000     18.2000
  0.095000     17.8000
  0.096000     17.4000
  0.097000     16.9000
  0.097000     16.3000
  0.098000     15.7000
  0.099000     15.1000
  0.099000     14.6000
  0.101000     14.0000
  0.103000     14.6000
  0.112000     26.5000
  0.119000     32.9000
  0.121000     33.4000
  0.121000     33.2000
  0.123000     33.2000
  0.124000     33.6000
  0.125000     34.0000
  0.126000     34.0000
  0.126000     34.0000
  0.126000     34.0000
  0.127000     34.0000
  0.127000     34.1000
  0.127000     34.2000
  0.127000     34.3000
  0.128000     34.5000
  0.127000     34.5000
  0.127000     34.6000
  0.127000     34.7000
  0.127000     34.7000
  0.127000     34.7000
  0.127000     34.7000
  0.126000     34.8000
  0.126000     34.8000
N2
  0.117000   -158.8000
  0.115000   -159.4000
  0.113000   -159.3000
  0.105000   -159.3000
  0.100000   -159.1000
  0.093000   -159.1000
  0.090000   -159.3000
  0.087000   -159.4000
  0.082000   -159.6000
  0.077000   -159.8000
  0.074000   -159.9000
  0.072000   -160.0000
  0.070000   -160.0000
  0.067000   -160.1000
  0.065000   -160.0000
  0.063000   -160.0000
  0.061000   -159.8000
  0.057000   -159.4000
  0.053000   -158.9000
  0.051000   -158.3000
  0.048000   -157.7000
  0.045000   -157.1000
  0.043000   -156.5000
  0.041000   -155.7000
  0.038000   -154.7000
  0.037000   -153.7000
  0.035000   -152.4000
  0.033000   -150.9000
  0.031000   -149.1000
  0.029000   -147.0000
  0.027000   -144.4000
  0.024000   -141.2000
  0.022000   -137.3000
  0.021000   -132.7000
  0.019000   -127.1000
  0.017000   -120.7000
  0.016000   -113.3000
  0.015000   -100.8000
  0.015000    -86.5000
  0.016000    -69.8000
  0.019000    -57.1000
  0.022000    -48.7000
  0.025000    -42.3000
  0.029000    -37.9000
  0.032000    -35.0000
  0.035000    -32.9000
  0.039000    -31.0000
  0.043000    -29.5000
  0.047000    -28.4000
  0.050000    -27.5000
  0.053000    -27.0000
  0.057000    -26.5000
  0.060000    -26.1000
  0.062000    -25.9000
  0.065000    -25.7000
  0.068000    -25.7000
  0.071000    -25.7000
  0.073000    -25.7000
  0.075000    -25.9000
  0.077000    -26.1000
  0.079000    -26.4000
  0.081000    -26.7000
  0.083000    -27.2000
  0.085000    -27.8000
  0.086000    -28.4000
  0.087000    -29.1000
  0.088000    -29.5000
  0.089000    -29.9000
  0.089000    -30.3000
  0.090000    -30.8000
  0.091000    -31.4000
  0.091000    -32.0000
  0.092000    -32.6000
  0.093000    -33.4000
  0.093000    -34.2000
  0.094000    -35.1000
  0.094000    -36.0000
  0.094000    -36.7000
  0.095000    -37.7000
  0.099000    -38.5000
  0.111000    -35.4000
  0.115000    -31.9000
  0.116000    -32.0000
  0.116000    -32.7000
  0.116000    -33.4000
  0.117000    -33.8000
  0.118000    -34.3000
  0.118000    -34.6000
  0.118000    -35.0000
  0.118000    -35.3000
  0.118000    -35.7000
  0.118000    -36.0000
  0.118000    -36.4000
  0.118000    -36.7000
  0.118000    -37.1000
  0.117000    -37.5000
  0.117000    -37.9000
  0.116000    -38.3000
  0.116000    -38.8000
  0.115000    -39.3000
  0.114000    -39.9000
  0.113000    -40.2000
  0.113000    -40.4000
K2
  0.066000   -107.2000
  0.065000   -107.5000
  0.063000   -108.0000
  0.053000   -110.5000
  0.048000   -111.3000
  0.042000   -112.6000
  0.040000   -113.6000
  0.037000   -114.6000
  0.034000   -116.3000
  0.031000   -117.4000
  0.030000   -118.0000
  0.028000   -118.2000
  0.027000   -118.4000
  0.026000   -118.5000
  0.025000   -118.4000
  0.024000   -118.2000
  0.023000   -117.9000
  0.021000   -116.9000
  0.019000   -116.1000
  0.018000   -115.2000
  0.017000   -114.2000
  0.016000   -113.3000
  0.015000   -112.7000
  0.014000   -112.1000
  0.013000   -111.9000
  0.013000   -111.3000
  0.012000   -110.3000
  0.012000   -109.1000
  0.011000   -107.6000
  0.010000   -105.9000
  0.010000   -103.9000
  0.009000   -101.6000
  0.008000    -98.8000
  0.008000    -95.3000
  0.007000    -91.0000
  0.007000    -86.1000
  0.006000    -80.3000
  0.006000    -69.9000
  0.006000    -57.3000
  0.006000    -41.5000
  0.006000    -27.5000
  0.007000    -17.1000
  0.007000     -8.4000
  0.008000     -2.1000
  0.009000      2.1000
  0.010000      5.4000
  0.011000      8.6000
  0.012000     11.1000
  0.013000     13.2000
  0.014000     14.9000
  0.015000     16.1000
  0.016000     17.3000
  0.017000     18.3000
  0.017000     19.2000
  0.018000     19.8000
  0.019000     20.4000
  0.019000     20.9000
  0.020000     21.2000
  0.021000     21.3000
  0.021000     21.3000
  0.021000     21.3000
  0.022000     21.2000
  0.022000     21.0000
  0.022000     20.8000
  0.023000     20.5000
  0.023000     20.2000
  0.023000     20.0000
  0.023000     19.9000
  0.024000     19.6000
  0.024000     19.4000
  0.024000     19.2000
  0.024000     18.9000
  0.024000     18.6000
  0.025000     18.2000
  0.025000     17.7000
  0.025000     17.3000
  0.025000     16.8000
  0.025000     16.5000
  0.026000     16.2000
  0.027000     18.1000
  0.033000     34.2000
  0.037000     38.1000
  0.037000     37.7000
  0.038000     36.8000
  0.039000     36.2000
  0.040000     36.2000
  0.040000     36.2000
  0.040000     36.1000
  0.041000     35.9000
  0.041000     35.8000
  0.041000     35.6000
  0.041000     35.5000
  0.042000     35.4000
  0.042000     35.3000
  0.042000     35.2000
  0.042000     35.0000
  0.042000     34.8000
  0.042000     34.6000
  0.042000     34.3000
  0.042000     33.9000
  0.042000     33.5000
  0.042000     33.2000
  0.042000     33.1000
K1
  0.120000   -118.0000
  0.120000   -118.1000
  0.118000   -118.2000
  0.108000   -118.6000
  0.103000   -118.8000
  0.098000   -118.9000
  0.095000   -119.1000
  0.093000   -119.2000
  0.090000   -119.5000
  0.089000   -119.7000
  0.088000   -119.8000
  0.088000   -119.8000
  0.087000   -119.9000
  0.087000   -120.0000
  0.087000   -120.0000
  0.086000   -120.1000
  0.086000   -120.2000
  0.085000   -120.5000
  0.084000   -120.8000
  0.083000   -121.0000
  0.083000   -121.3000
  0.082000   -121.7000
  0.081000   -122.1000
  0.080000   -122.7000
  0.079000   -123.4000
  0.078000   -124.1000
  0.077000   -124.8000
  0.077000   -125.5000
  0.076000   -126.2000
  0.075000   -127.0000
  0.075000   -127.8000
  0.074000   -128.7000
  0.073000   -129.6000
  0.072000   -130.5000
  0.072000   -131.4000
  0.071000   -132.2000
  0.070000   -133.1000
  0.069000   -134.3000
  0.067000   -135.8000
  0.066000   -137.7000
  0.064000   -139.6000
  0.062000   -141.5000
  0.061000   -143.7000
  0.059000   -146.0000
  0.058000   -148.1000
  0.057000   -150.3000
  0.056000   -153.0000
  0.055000   -155.7000
  0.054000   -158.6000
  0.053000   -161.5000
  0.053000   -164.3000
  0.052000   -167.1000
  0.052000   -169.8000
  0.052000   -172.4000
  0.052000   -175.4000
  0.053000   -178.1000
  0.053000    179.7000
  0.054000    177.6000
  0.055000    175.9000
  0.056000    174.3000
  0.057000    172.8000
  0.057000    171.4000
  0.058000    170.0000
  0.059000    168.8000
  0.060000    168.0000
  0.061000    167.3000
  0.061000    167.0000
  0.061000    166.8000
  0.062000    166.6000
  0.062000    166.5000
  0.062000    166.4000
  0.063000    166.4000
  0.063000    166.5000
  0.064000    166.5000
  0.064000    166.6000
  0.065000    166.5000
  0.065000    166.0000
  0.065000    165.3000
  0.067000    163.0000
  0.073000    161.3000
  0.062000    165.5000
  0.040000    165.1000
  0.038000    155.3000
  0.036000    144.2000
  0.036000    133.7000
  0.037000    123.2000
  0.039000    113.7000
  0.039000    108.4000
  0.039000    103.0000
  0.039000     97.7000
  0.039000     92.5000
  0.040000     87.5000
  0.042000     82.5000
  0.044000     77.6000
  0.046000     72.7000
  0.048000     67.6000
  0.050000     62.5000
  0.052000     57.5000
  0.055000     52.6000
  0.058000     47.8000
  0.062000     43.3000
  0.066000     40.7000
  0.068000     39.7000
O1
  0.091000   -125.4000
  0.091000   -125.5000
  0.090000   -125.8000
  0.086000   -127.1000
  0.083000   -127.8000
  0.080000   -128.5000
  0.079000   -128.9000
  0.078000   -129.4000
  0.076000   -130.1000
  0.075000   -130.5000
  0.074000   -130.8000
  0.074000   -130.9000
  0.073000   -131.1000
  0.072000   -131.2000
  0.072000   -131.3000
  0.072000   -131.4000
  0.071000   -131.5000
  0.070000   -131.6000
  0.069000   -131.8000
  0.069000   -132.0000
  0.068000   -132.2000
  0.067000   -132.4000
  0.067000   -132.7000
  0.066000   -133.0000
  0.066000   -133.4000
  0.065000   -133.7000
  0.065000   -134.1000
  0.064000   -134.5000
  0.064000   -134.8000
  0.063000   -135.2000
  0.063000   -135.6000
  0.062000   -136.0000
  0.062000   -136.5000
  0.061000   -136.9000
  0.061000   -137.4000
  0.060000   -137.9000
  0.060000   -138.4000
  0.059000   -139.2000
  0.058000   -140.1000
  0.057000   -141.3000
  0.056000   -142.4000
  0.055000   -143.5000
  0.054000   -144.8000
  0.053000   -146.1000
  0.052000   -147.4000
  0.051000   -148.7000
  0.050000   -150.2000
  0.049000   -151.9000
  0.048000   -153.6000
  0.047000   -155.4000
  0.047000   -157.2000
  0.046000   -159.0000
  0.045000   -160.8000
  0.045000   -162.6000
  0.045000   -164.6000
  0.044000   -166.6000
  0.044000   -168.4000
  0.044000   -170.2000
  0.044000   -171.8000
  0.044000   -173.3000
  0.045000   -174.8000
  0.045000   -176.3000
  0.045000   -177.8000
  0.046000   -179.2000
  0.047000    179.8000
  0.047000    178.8000
  0.048000    178.4000
  0.048000    178.0000
  0.048000    177.6000
  0.049000    177.2000
  0.049000    176.8000
  0.050000    176.5000
  0.050000    176.1000
  0.051000    175.8000
  0.051000    175.4000
  0.052000    174.9000
  0.052000    174.5000
  0.051000    174.1000
  0.051000    171.5000
  0.052000    166.4000
  0.040000    173.1000
  0.028000   -166.3000
  0.023000   -164.9000
  0.018000   -162.4000
  0.013000   -156.7000
  0.008000   -151.5000
  0.004000   -120.8000
  0.004000    -84.1000
  0.006000    -61.8000
  0.008000    -50.7000
  0.010000    -44.0000
  0.012000    -38.5000
  0.014000    -32.6000
  0.017000    -28.0000
  0.020000    -26.3000
  0.023000    -26.4000
  0.027000    -26.8000
  0.030000    -27.5000
  0.033000    -28.4000
  0.037000    -29.3000
  0.041000    -29.7000
  0.045000    -29.4000
  0.046000    -29.3000
Q1
  0.016000   -147.3000
  0.016000   -147.6000
  0.015000   -147.9000
  0.015000   -149.3000
  0.015000   -149.7000
  0.015000   -150.3000
  0.015000   -150.7000
  0.014000   -151.0000
  0.014000   -151.5000
  0.014000   -151.8000
  0.014000   -152.0000
  0.014000   -152.2000
  0.014000   -152.3000
  0.014000   -152.5000
  0.013000   -152.6000
  0.013000   -152.7000
  0.013000   -152.8000
  0.013000   -152.9000
  0.013000   -153.0000
  0.013000   -153.2000
  0.013000   -153.3000
  0.013000   -153.5000
  0.012000   -153.8000
  0.012000   -154.0000
  0.012000   -154.2000
  0.012000   -154.5000
  0.012000   -154.8000
  0.012000   -155.1000
  0.012000   -155.3000
  0.012000   -155.6000
  0.012000   -155.9000
  0.012000   -156.2000
  0.012000   -156.5000
  0.012000   -156.9000
  0.012000   -157.2000
  0.011000   -157.6000
  0.011000   -157.9000
  0.011000   -158.4000
  0.011000   -159.0000
  0.011000   -159.8000
  0.011000   -160.4000
  0.011000   -161.2000
  0.011000   -162.0000
  0.010000   -162.9000
  0.010000   -163.8000
  0.010000   -164.6000
  0.010000   -165.7000
  0.010000   -166.8000
  0.010000   -167.9000
  0.009000   -169.1000
  0.009000   -170.2000
  0.009000   -171.4000
  0.009000   -172.5000
  0.009000   -173.7000
  0.009000   -175.1000
  0.009000   -176.4000
  0.009000   -177.7000
  0.009000   -179.0000
  0.009000    179.9000
  0.009000    178.7000
  0.009000    177.5000
  0.009000    176.2000
  0.009000    174.9000
  0.009000    173.6000
  0.009000    172.5000
  0.009000    171.4000
  0.009000    170.9000
  0.009000    170.4000
  0.009000    169.9000
  0.009000    169.4000
  0.009000    169.0000
  0.009000    168.5000
  0.009000    168.0000
  0.009000    167.6000
  0.009000    167.1000
  0.009000    166.6000
  0.009000    166.0000
  0.009000    165.5000
  0.009000    163.8000
  0.009000    161.5000
  0.007000    174.5000
  0.005000   -169.0000
  0.005000   -166.8000
  0.004000   -165.3000
  0.004000   -161.9000
  0.003000   -159.1000
  0.003000   -153.4000
  0.002000   -148.1000
  0.002000   -142.2000
  0.002000   -135.9000
  0.002000   -129.1000
  0.002000   -121.5000
  0.002000   -111.4000
  0.002000    -99.0000
  0.002000    -88.8000
  0.002000    -81.0000
  0.003000    -75.1000
  0.003000    -70.6000
  0.003000    -67.2000
  0.004000    -64.4000
  0.004000    -61.7000
  0.005000    -59.6000
  0.005000    -58.9000
100.0                      ! ANGINN : INNER ANGLE THRESHOLD
1                     ! NFFR
 STEADY                  ! CONSTITUENT 1 ALPHA DESCRIPTOR
 0.00000E-00  1.00  0.00 ! CONSTITUENT 1 FREQ., NODAL FACTOR, EQUIL. ARG.
 STEADY                  ! ALPHANUMERIC DESCRIPTION OF ELEVATION BOUNDARY FORCING
 0.0     0.0
 0.0     0.0
 0.12     0.0
 0.12     0.0
 0.0     0.0
 0.0     0.0
 0.0     0.0
 0.0     0.0
 0.15     0.0
 0.15     0.0
 0.0     0.0
 0.0     0.0
 0.0     0.0
 0.0     0.0
 0.23     0.0
 0.23     0.0
 0.0     0.0
 0.0     0.0
 0.0     0.0
 0.0     0.0
 0.45     0.0
 0.45     0.0
 0.0     0.0
 0.0     0.0
%FORT61%                   ! NOUTE,TOUTSE,TOUTFE,NSPOOLE (UNIT  61)
%NUMELEVSTATIONS%          ! TOTAL NUMBER OF ELEVATION RECORDING STATIONS    
%FORT62%                   ! NOUTV,TOUTSV,TOUTFV,NSPOOLV (UNIT 62)
%NUMVELSTATIONS%           ! TOTAL NUMBER OF VELOCITY RECORDING STATIONS
%FORT7172%
%NUMMETSTATIONS%           ! NSTAM - NUMBER OF MET RECORDING STATIONS
%FORT63%                   ! NOUTGE,TOUTSGE,TOUTFGE,NSPOOLGE : (UNIT  63)
%FORT64%                   ! NOUTGV,TOUTSGV,TOUTFGV,NSPOOLGV : (UNIT  64)
%FORT7374%                 ! NOUTGM,TOUTSGM,TOUTFGM,NSPOOLGM (UNIT  73,74)
0                          ! NHARF - NUMBER OF FREQENCIES IN HARMONIC ANALYSIS
1.0 2.0 3 0.0              ! THAS, THAF, NHAINC,FMV
0  0  0  0                 ! NHASE,NHASV,NHAGE,NHAGV
%NHSTAR%  %NHSINC%         ! NHSTAR,NHSINC
 -1  0  1e-10  25  1       ! ITITER,ISLDIA,CONVCR,ITMAX,ILUMP
NCFS
UNC-CH IMS, RENCI, SeahorseCoastal
RENCI HPC
NCFS Nowcast/Forecast
http://www.renci.org
Model time is relative to UTC.
RENCI HPC
CF
jason.fleming@seahorsecoastal.com
%CSYEAR%-%CSMONTH%-%CSDAY% %CSHOUR%:00:00
&wetDryControl noffActive=.false.  /
&inundationOutputControl inundationOutput=.true. /
&metControl WindDragLimit=0.0025 /
%offsetline%
