URIv18 %StormName%
%EnsembleID%
1 20.0 1 20 100.0     ! NFOVER NONFATA OVERRIDE,WARNING ELEV, FORT.69, KILL RUN ELEV
1                     ! NABOUT - ABREVIATED OUTPUT OPTION PARAMETER
%NSCREEN%             ! NSCREEN - UNIT 6 OUTPUT OPTION PARAMETER
%IHOT%                ! IHOT - HOT START
2                	  ! ICS - COORDINATE SYSTEM SELECTION PARAMETER
111112                ! IM - MODEL SELECTION PARAMETER
1                	  ! NOLIBF - BOTTOM FRICTION TERM SELECTION PARAM
2                	  ! NOLIFA - FINITE AMPLITUDE TERM SELECTION PARAMETER
1                	  ! NOLICA - SPATIAL DERIVATIVE CONVECTIVE SELECTION PARAMETER
1                	  ! NOLICAT - TIME DERIVATIVE CONVECTIVE TERM SELECTION PARAMETER
4                	  ! NWP
mannings_n_at_sea_floor
primitive_weighting_in_continuity_equation
advection_state
elemental_slope_limiter
1                         ! NCOR - VARIABLE CORIOLIS IN SPACE
1                	  ! NTIP - TIDAL POTENTIAL OPTION PARAMETER
%NWS%                	  ! NWS - WIND STRESS AND BAROMETRIC PRESSURE OPTION PARAMETER
1             	          ! NRAMP - RAMP FUNCTION OPTION
9.81             	  ! G - ACCELERATION DUE TO GRAVITY - DETERMINES UNITS
-3 	                  ! TAU0 - WEIGHTING FACTOR IN GWCE; original, 0.005
%DT% 	                  ! DT - TIME STEP (IN SECONDS)
0.00   		          ! STATIM - STARTING TIME (IN DAYS)
0.00  	                  ! REFTIM - REFERENCE TIME (IN DAYS)
%WTIMINC%                 ! WTIMINC, RSTIMINC (IN SECONDS)
%RNDAY%                   ! RNDAY - TOTAL LENGTH OF SIMULATION (IN DAYS)
7.0	                  ! DRAMP, DURATION OF RAMP FUNCTION (IN DAYS)
0.0 1.0 0.0               ! TIME WEIGHTING FACTORS FOR THE GWCE EQUATION
0.01 0 0 .05               ! H0 MINIMUM CUTOFF DEPTH, NODEDRYMIN, NODEWETRMP, VELMIN
-79.0 35.0       	  ! SLAM0,SFEA0 - CENTER OF CPP PROJECTION (NOT USED IF ICS=1, NTIP=0, NCOR=0)
0.001 1. 10. 0.33333      ! FFACTOR - BOTTOM FRICTION COEFFICIENT
10.0                      ! ESL - LATERAL EDDY VISCOSITY COEFFICIENT
0.0 	                  ! CORI - CORIOLIS PARAMETER - IGNORED IF NCOR = 1
7                         ! NTIF
M2
 0.242334  1.405174E-004 0.693000 %M2NF%  %M2EQARG%
S2
 0.112841  1.454426E-004 0.693000 %S2NF%  %S2EQARG%
N2
 0.046398  1.378783E-004 0.693000 %N2NF%  %N2EQARG%
K2
 0.030704  1.458408E-004 0.693000 %K2NF%  %K2EQARG%
K1
 0.141565  7.292040E-005 0.736000 %K1NF%  %K1EQARG%
O1
 0.100514  6.759704E-005 0.695000 %O1NF%  %O1EQARG%
Q1
 0.019256 6.495787E-005 0.695000  %Q1NF%  %Q1EQARG%
7  !  NBFR - TOTAL NUMBER OF FORCING FREQUENCIES ON OPEN BOUNDARIES
M2
 1.405174E-004  %M2NF%  %M2EQARG%
S2
 1.454426E-004  %S2NF%  %S2EQARG%
N2
 1.378783E-004  %N2NF%  %N2EQARG%
K2
 1.458408E-004  %K2NF%  %K2EQARG%
K1
 7.292040E-005  %K1NF%  %K1EQARG%
O1
 6.759704E-005  %O1NF%  %O1EQARG%
Q1
 6.495787E-005  %Q1NF%  %Q1EQARG%
M2
0.846491  224.047645
0.767447  223.028258
0.663133  221.776291
0.585500  221.034793
0.525305  220.588146
0.484867  220.410347
0.464860  220.483739
0.454823  220.665750
0.447259  220.869726
0.440274  221.075078
0.433639  221.280277
0.427430  221.499564
0.421558  221.753234
0.415705  222.029207
0.409394  222.315390
0.402390  222.616916
0.394756  222.936997
0.386585  223.277370
0.378004  223.640655
0.369082  224.030128
0.359727  224.451093
0.349806  224.912340
0.339325  225.422493
0.328537  225.988562
0.317542  226.619599
0.306407  227.324485
0.295077  228.115556
0.283511  229.008274
0.271771  230.018368
0.259990  231.157691
0.248305  232.436784
0.236753  233.875319
0.225292  235.501111
0.213976  237.338451
0.202850  239.414062
0.191839  241.771757
0.180825  244.484503
0.170197  247.558846
0.159760  251.123600
0.150562  255.032132
0.142285  259.428016
0.135112  264.311434
0.128946  269.779808
0.124002  275.833369
0.120635  282.293592
0.118934  288.855203
0.118738  295.392593
0.120046  301.533532
0.122687  307.333162
0.126424  312.628567
0.131084  317.381263
0.136447  321.615049
0.142267  325.287933
0.148356  328.458480
0.154587  331.188176
0.160881  333.552549
0.167216  335.631828
0.173566  337.486496
0.179843  339.120243
0.186065  340.573564
0.192124  341.864695
0.197967  342.992175
0.203650  343.982717
0.209268  344.896185
0.214745  345.725991
0.220148  346.490163
0.225494  347.187986
0.230741  347.821998
0.235881  348.404207
0.240945  348.941302
0.246001  349.449741
0.250919  349.912670
0.255686  350.323409
0.260367  350.693391
0.264923  351.019550
0.269365  351.310160
0.273715  351.570743
0.277953  351.797087
0.282069  351.989439
0.286087  352.151968
0.290020  352.286342
0.293831  352.396131
0.297615  352.487333
0.301362  352.551547
0.304937  352.580097
0.308424  352.583945
0.311851  352.566126
0.315226  352.525682
0.318568  352.462744
0.321870  352.375372
0.325124  352.268278
0.328318  352.146641
0.331443  352.007571
0.334505  351.853965
0.337506  351.686654
0.340460  351.510382
0.343364  351.323947
0.346237  351.131723
0.349090  350.936353
0.351927  350.740565
0.354726  350.540997
0.357504  350.341690
0.360262  350.143792
0.362989  349.947984
0.365679  349.754382
0.368341  349.563489
0.370978  349.377810
0.373593  349.196896
0.376179  349.021068
0.378737  348.851421
0.381275  348.684453
0.383778  348.526305
0.386263  348.371264
0.388727  348.222137
0.391174  348.077193
0.393607  347.935560
0.395945  347.800874
0.398264  347.664764
0.400551  347.536780
0.402774  347.415991
0.404934  347.302136
0.407049  347.191527
0.409070  347.085079
0.411009  346.986548
0.412849  346.889490
0.414579  346.800518
0.416520  346.694733
0.418410  346.588930
0.420252  346.487158
0.422060  346.385969
0.423810  346.286371
0.425508  346.190318
0.427173  346.091950
0.428792  345.993921
0.430351  345.897883
0.431881  345.805231
0.433420  345.707449
0.434987  345.611469
0.436571  345.518254
0.438550  345.432009
0.440642  345.356367
0.442795  345.283811
0.445528  345.215038
0.448363  345.141040
0.451184  345.076464
0.453964  345.007618
0.457699  344.929959
0.461963  344.859728
0.467006  344.826859
0.472752  344.822676
0.480851  344.938267
0.491130  345.167200
0.501620  345.399944
0.512024  345.650149
0.522256  345.900279
0.531500  346.216857
0.540293  346.502708
0.548200  346.771113
0.555587  347.018518
0.560695  347.214190
0.565408  347.390207
0.569836  347.564313
0.574100  347.727534
0.577150  347.832141
0.580052  347.923404
0.582881  348.018158
0.585650  348.106806
0.587719  348.155658
0.589740  348.199209
0.591685  348.251256
0.593598  348.300108
0.595206  348.330832
0.596733  348.357013
0.598201  348.387674
0.599647  348.417458
0.601043  348.443689
0.602473  348.465824
0.603809  348.490198
0.605043  348.516619
0.606194  348.541622
0.607183  348.565046
0.607571  348.589299
0.607798  348.617368
0.608057  348.654396
0.608259  348.691495
0.608415  348.725289
S2
0.289881  252.556644
0.261460  251.000003
0.224338  248.900047
0.196595  247.544438
0.175007  246.612424
0.160553  246.127584
0.153496  246.069029
0.150033  246.180631
0.147475  246.338263
0.145132  246.505695
0.142900  246.675417
0.140811  246.863491
0.138851  247.093703
0.136919  247.363415
0.134830  247.655195
0.132495  247.972598
0.129937  248.320870
0.127191  248.702080
0.124305  249.117320
0.121307  249.566773
0.118173  250.052871
0.114862  250.581310
0.111380  251.154688
0.107817  251.770659
0.104205  252.429431
0.100566  253.130825
0.096874  253.879785
0.093113  254.684879
0.089298  255.555920
0.085468  256.501963
0.081663  257.534616
0.077892  258.676972
0.074133  259.963469
0.070399  261.427611
0.066697  263.109304
0.062996  265.065623
0.059251  267.381635
0.055593  270.083188
0.051963  273.306864
0.048723  276.923384
0.045780  281.061420
0.043203  285.711883
0.040961  290.955116
0.039122  296.772112
0.037791  302.967509
0.036982  309.244364
0.036623  315.510698
0.036704  321.426525
0.037159  327.075238
0.037921  332.326892
0.038944  337.152597
0.040171  341.575934
0.041546  345.538936
0.043021  349.076947
0.044565  352.230515
0.046156  355.052949
0.047791  357.609532
0.049461  359.951625
0.051140  2.067189
0.052830  3.988523
0.054500  5.731557
0.056127  7.286494
0.057723  8.676026
0.059314  9.971112
0.060875  11.162233
0.062422  12.266805
0.063948  13.281364
0.065444  14.211294
0.066907  15.071670
0.068345  15.870029
0.069782  16.625990
0.071178  17.321463
0.072522  17.948099
0.073840  18.519376
0.075110  19.033122
0.076339  19.501200
0.077529  19.929650
0.078675  20.315069
0.079768  20.660208
0.080826  20.968962
0.081847  21.243889
0.082826  21.491249
0.083793  21.715338
0.084731  21.907703
0.085609  22.062161
0.086445  22.190884
0.087249  22.295659
0.088025  22.376082
0.088762  22.430525
0.089473  22.457563
0.090153  22.461966
0.090806  22.447914
0.091429  22.411737
0.092021  22.356536
0.092580  22.283588
0.093108  22.196478
0.093614  22.095282
0.094103  21.983358
0.094573  21.863672
0.095023  21.736713
0.095458  21.601801
0.095881  21.462224
0.096292  21.319526
0.096687  21.174793
0.097068  21.027503
0.097435  20.879626
0.097792  20.732553
0.098136  20.587207
0.098468  20.443731
0.098788  20.303644
0.099101  20.163770
0.099400  20.029324
0.099690  19.896019
0.099969  19.767062
0.100239  19.641488
0.100499  19.518426
0.100746  19.402054
0.100987  19.286118
0.101214  19.176646
0.101425  19.072134
0.101621  18.973060
0.101808  18.876920
0.101979  18.785325
0.102138  18.699463
0.102287  18.615811
0.102422  18.538872
0.102578  18.449590
0.102728  18.360160
0.102871  18.273901
0.103013  18.187673
0.103147  18.102024
0.103278  18.018895
0.103410  17.934669
0.103542  17.850598
0.103667  17.768807
0.103795  17.689014
0.103927  17.606687
0.104067  17.525894
0.104213  17.447138
0.104383  17.366497
0.104574  17.291844
0.104779  17.219875
0.105077  17.144950
0.105423  17.068739
0.105814  17.008572
0.106234  16.952206
0.107045  16.912132
0.108009  16.879033
0.109158  16.873777
0.110476  16.891710
0.112350  17.029848
0.114735  17.278416
0.117167  17.521629
0.119579  17.768269
0.121942  18.013441
0.124023  18.333611
0.125999  18.622450
0.127769  18.893303
0.129416  19.142327
0.130489  19.341694
0.131460  19.520549
0.132357  19.696046
0.133210  19.859099
0.133751  19.963432
0.134250  20.053076
0.134727  20.145121
0.135188  20.229758
0.135467  20.272710
0.135733  20.309016
0.135983  20.352987
0.136228  20.393128
0.136393  20.413757
0.136541  20.428606
0.136685  20.448141
0.136831  20.466479
0.136971  20.481075
0.137086  20.488188
0.137194  20.496422
0.137295  20.504666
0.137390  20.510550
0.137467  20.515155
0.137470  20.523051
0.137467  20.531915
0.137477  20.548616
0.137482  20.564267
0.137482  20.578148
N2
0.180732  207.954019
0.164776  206.695904
0.143626  205.077023
0.127760  204.086012
0.115376  203.448598
0.106983  203.149150
0.102800  203.165963
0.100689  203.313267
0.099085  203.493079
0.097602  203.679475
0.096195  203.869371
0.094872  204.074345
0.093607  204.306906
0.092330  204.561595
0.090946  204.829334
0.089406  205.112907
0.087723  205.416065
0.085918  205.741161
0.084020  206.090660
0.082046  206.466892
0.079980  206.874073
0.077795  207.318689
0.075497  207.806546
0.073143  208.340886
0.070756  208.926618
0.068350  209.568091
0.065915  210.272156
0.063439  211.048209
0.060933  211.906334
0.058420  212.853753
0.055923  213.898837
0.053442  215.059515
0.050961  216.361943
0.048484  217.832858
0.046015  219.502981
0.043532  221.417883
0.041004  223.648655
0.038518  226.216560
0.036030  229.244339
0.033781  232.635564
0.031710  236.530798
0.029872  240.949531
0.028254  245.990512
0.026917  251.668233
0.025948  257.822414
0.025376  264.144482
0.025154  270.489152
0.025273  276.496730
0.025681  282.222010
0.026323  287.514033
0.027161  292.347527
0.028149  296.748164
0.029243  300.664953
0.030408  304.138880
0.031622  307.212298
0.032868  309.943404
0.034141  312.397588
0.035436  314.624118
0.036734  316.613828
0.038038  318.402975
0.039322  320.002239
0.040575  321.406700
0.041806  322.645657
0.043033  323.784929
0.044239  324.815447
0.045437  325.758607
0.046631  326.614681
0.047810  327.386669
0.048971  328.088208
0.050121  328.727853
0.051273  329.325121
0.052398  329.862383
0.053494  330.334408
0.054574  330.756113
0.055629  331.124680
0.056663  331.450380
0.057681  331.740135
0.058677  331.991017
0.059651  332.203895
0.060606  332.385122
0.061546  332.536949
0.062461  332.664049
0.063374  332.773351
0.064283  332.856032
0.065155  332.904874
0.066012  332.930237
0.066858  332.935541
0.067694  332.920002
0.068527  332.882308
0.069352  332.822280
0.070169  332.743300
0.070972  332.650492
0.071760  332.540373
0.072534  332.414927
0.073295  332.274280
0.074045  332.122305
0.074785  331.958440
0.075519  331.786242
0.076249  331.607069
0.076977  331.423078
0.077697  331.232002
0.078415  331.036993
0.079130  330.839393
0.079839  330.639670
0.080543  330.437519
0.081244  330.234076
0.081939  330.033347
0.082628  329.834606
0.083311  329.637784
0.083989  329.444509
0.084662  329.251513
0.085329  329.064965
0.085990  328.880354
0.086644  328.701165
0.087289  328.525621
0.087928  328.353193
0.088540  328.188965
0.089143  328.023880
0.089735  327.866927
0.090308  327.718454
0.090864  327.578286
0.091404  327.443067
0.091918  327.314080
0.092410  327.195477
0.092873  327.080606
0.093309  326.976665
0.093794  326.856240
0.094264  326.738294
0.094721  326.626938
0.095168  326.517908
0.095598  326.413382
0.096014  326.313717
0.096419  326.214556
0.096811  326.116854
0.097185  326.023231
0.097550  325.934030
0.097904  325.840806
0.098254  325.750175
0.098597  325.662952
0.098953  325.574663
0.099318  325.493676
0.099686  325.415522
0.100123  325.331338
0.100591  325.245059
0.101089  325.173380
0.101604  325.104973
0.102403  325.044409
0.103319  324.992069
0.104390  324.977469
0.105605  324.996449
0.107286  325.151962
0.109405  325.436720
0.111576  325.728069
0.113743  326.038065
0.115879  326.344727
0.117790  326.688545
0.119617  326.999315
0.121271  327.285988
0.122825  327.548045
0.123915  327.727299
0.124929  327.884507
0.125888  328.038675
0.126819  328.182674
0.127518  328.258962
0.128191  328.323120
0.128845  328.391428
0.129489  328.455616
0.130004  328.479358
0.130510  328.499767
0.130995  328.529236
0.131471  328.557614
0.131889  328.569181
0.132291  328.578193
0.132672  328.592836
0.133045  328.608475
0.133406  328.622240
0.133788  328.631778
0.134143  328.645784
0.134470  328.664260
0.134776  328.683406
0.135040  328.702781
0.135158  328.726093
0.135234  328.756092
0.135317  328.795032
0.135387  328.835044
0.135444  328.871945
K2
0.080366  252.257090
0.072399  250.386716
0.062046  247.717765
0.054354  245.911806
0.048394  244.590502
0.044400  243.842980
0.042444  243.675004
0.041481  243.737046
0.040767  243.859806
0.040113  243.997074
0.039492  244.140566
0.038909  244.305171
0.038358  244.509831
0.037811  244.750855
0.037216  245.011669
0.036552  245.295021
0.035823  245.607388
0.035039  245.953025
0.034216  246.336033
0.033361  246.759181
0.032470  247.227365
0.031532  247.749189
0.030551  248.330736
0.029554  248.973972
0.028552  249.682264
0.027553  250.457614
0.026550  251.307329
0.025540  252.241610
0.024526  253.270829
0.023518  254.402225
0.022525  255.641611
0.021546  257.005370
0.020572  258.520724
0.019605  260.209904
0.018642  262.099775
0.017670  264.236285
0.016675  266.695577
0.015688  269.494165
0.014691  272.769695
0.013784  276.395759
0.012943  280.520400
0.012189  285.161416
0.011517  290.435857
0.010950  296.363282
0.010525  302.775723
0.010254  309.380772
0.010123  316.069185
0.010136  322.439195
0.010274  328.530915
0.010519  334.165320
0.010854  339.279494
0.011260  343.885079
0.011717  347.924863
0.012207  351.449053
0.012719  354.514640
0.013244  357.192312
0.013778  359.561950
0.014319  1.686408
0.014856  3.567958
0.015391  5.246959
0.015914  6.747260
0.016418  8.067428
0.016906  9.233171
0.017387  10.310121
0.017854  11.293731
0.018312  12.201682
0.018758  13.033254
0.019191  13.794018
0.019610  14.498122
0.020018  15.152416
0.020421  15.773165
0.020809  16.346380
0.021180  16.864909
0.021540  17.339292
0.021883  17.768177
0.022213  18.161232
0.022529  18.523495
0.022831  18.851507
0.023116  19.147531
0.023389  19.414133
0.023651  19.653048
0.023899  19.869613
0.024142  20.067132
0.024375  20.237453
0.024591  20.375284
0.024795  20.490480
0.024988  20.584709
0.025173  20.657045
0.025346  20.705381
0.025510  20.728662
0.025666  20.730526
0.025813  20.714935
0.025953  20.678422
0.026084  20.623753
0.026206  20.551948
0.026320  20.466638
0.026429  20.367245
0.026533  20.257305
0.026634  20.139841
0.026729  20.015806
0.026822  19.884597
0.026912  19.749335
0.027001  19.612111
0.027086  19.474053
0.027169  19.334773
0.027250  19.196835
0.027330  19.061111
0.027408  18.928839
0.027484  18.800258
0.027559  18.677030
0.027633  18.556314
0.027704  18.443439
0.027775  18.333817
0.027844  18.230412
0.027912  18.132228
0.027979  18.038472
0.028044  17.952085
0.028108  17.867139
0.028170  17.790123
0.028228  17.719500
0.028284  17.655057
0.028337  17.593913
0.028387  17.537239
0.028435  17.485782
0.028480  17.435769
0.028522  17.391176
0.028571  17.337808
0.028619  17.284315
0.028665  17.233203
0.028712  17.182265
0.028757  17.131122
0.028801  17.081715
0.028846  17.030490
0.028891  16.978946
0.028936  16.927136
0.028980  16.877586
0.029027  16.823222
0.029075  16.770963
0.029124  16.720482
0.029180  16.665480
0.029239  16.617129
0.029302  16.571971
0.029388  16.523841
0.029486  16.477058
0.029596  16.448918
0.029714  16.427536
0.029935  16.452092
0.030194  16.497951
0.030496  16.587918
0.030834  16.716119
0.031282  17.004012
0.031826  17.436783
0.032380  17.867301
0.032932  18.294165
0.033472  18.708484
0.033936  19.148030
0.034383  19.544799
0.034789  19.898176
0.035173  20.216522
0.035435  20.439301
0.035678  20.633641
0.035904  20.816741
0.036123  20.984051
0.036273  21.077798
0.036415  21.154858
0.036551  21.232079
0.036683  21.300779
0.036771  21.320405
0.036855  21.332184
0.036935  21.349653
0.037013  21.362596
0.037068  21.353847
0.037118  21.338596
0.037167  21.327488
0.037216  21.315158
0.037262  21.299141
0.037299  21.270724
0.037335  21.244527
0.037370  21.220223
0.037403  21.194845
0.037430  21.171783
0.037437  21.169115
0.037446  21.173581
0.037459  21.188421
0.037472  21.203434
0.037483  21.217348
K1
0.111935  258.348275
0.107804  255.526089
0.102816  251.885084
0.099025  249.826132
0.095814  248.483270
0.093348  247.758246
0.091634  247.502205
0.090290  247.382888
0.089072  247.282282
0.087874  247.192367
0.086650  247.116689
0.085422  247.040521
0.084257  246.936515
0.083166  246.801379
0.082083  246.649746
0.081001  246.477778
0.079917  246.284326
0.078830  246.069538
0.077737  245.834843
0.076636  245.581197
0.075529  245.304281
0.074415  245.000414
0.073297  244.667279
0.072174  244.308878
0.071043  243.926272
0.069906  243.517415
0.068759  243.080932
0.067604  242.612960
0.066442  242.111264
0.065272  241.577284
0.064092  241.011112
0.062907  240.409317
0.061718  239.767012
0.060531  239.081072
0.059343  238.347820
0.058156  237.561710
0.056973  236.710452
0.055793  235.801299
0.054621  234.821180
0.053451  233.794145
0.052295  232.703844
0.051154  231.549763
0.050034  230.320180
0.048937  229.011913
0.047866  227.628792
0.046850  226.203772
0.045894  224.741552
0.044996  223.255890
0.044145  221.718688
0.043351  220.152304
0.042618  218.558580
0.041944  216.940338
0.041325  215.305007
0.040761  213.656947
0.040251  211.999554
0.039793  210.337495
0.039389  208.671602
0.039038  207.008446
0.038737  205.352350
0.038485  203.708991
0.038280  202.081500
0.038117  200.475267
0.037997  198.894625
0.037922  197.338609
0.037889  195.807946
0.037898  194.303037
0.037953  192.822125
0.038047  191.367315
0.038181  189.937923
0.038355  188.537846
0.038564  187.167603
0.038804  185.830376
0.039076  184.529391
0.039372  183.262635
0.039699  182.037329
0.040054  180.854660
0.040439  179.719124
0.040850  178.629964
0.041290  177.594331
0.041748  176.603443
0.042227  175.661921
0.042721  174.767548
0.043228  173.921016
0.043749  173.124255
0.044281  172.371657
0.044827  171.672411
0.045380  171.020077
0.045939  170.414553
0.046510  169.864805
0.047082  169.355243
0.047652  168.894487
0.048212  168.476018
0.048761  168.099375
0.049301  167.761845
0.049832  167.461742
0.050355  167.199032
0.050867  166.967274
0.051368  166.763404
0.051859  166.587183
0.052343  166.439431
0.052815  166.311456
0.053278  166.202814
0.053733  166.111689
0.054179  166.038179
0.054618  165.981951
0.055050  165.939864
0.055475  165.912831
0.055893  165.900676
0.056305  165.901883
0.056710  165.916535
0.057107  165.940802
0.057498  165.978704
0.057881  166.026498
0.058259  166.086406
0.058629  166.156722
0.058990  166.236289
0.059336  166.321932
0.059672  166.413602
0.060000  166.515268
0.060312  166.620138
0.060611  166.728168
0.060898  166.838203
0.061168  166.949767
0.061424  167.056754
0.061660  167.157875
0.061883  167.255198
0.062129  167.359819
0.062363  167.456806
0.062594  167.545815
0.062819  167.624363
0.063035  167.688794
0.063250  167.740011
0.063461  167.770579
0.063671  167.788583
0.063877  167.778863
0.064094  167.764902
0.064290  167.706143
0.064496  167.638915
0.064705  167.559228
0.064872  167.424483
0.065053  167.282466
0.065236  167.124624
0.065340  166.903286
0.065399  166.652630
0.065463  166.358974
0.065501  166.032832
0.065263  165.564633
0.064897  165.061135
0.064397  164.524516
0.063751  163.960143
0.062513  163.241615
0.060710  162.337822
0.058855  161.358931
0.057010  160.206902
0.055191  158.817746
0.053364  156.483910
0.051804  153.910724
0.050664  151.046515
0.049874  147.996269
0.049942  144.508061
0.050397  141.049235
0.051235  137.747714
0.052364  134.657005
0.053962  131.851157
0.055760  129.289761
0.057743  127.025681
0.059856  125.013431
0.062160  123.239981
0.064558  121.665463
0.067029  120.351446
0.069547  119.208034
0.072139  118.119837
0.074750  117.140948
0.077333  116.337681
0.079893  115.639926
0.082417  114.980441
0.085288  114.113012
0.088002  113.380998
0.090478  112.793351
0.092795  112.290434
0.094826  111.876561
0.095791  111.748078
0.096359  111.840759
0.096838  112.013157
0.097226  112.235494
0.097533  112.460052
O1
0.089198  241.280315
0.087234  239.070216
0.084735  236.311511
0.082613  234.737814
0.080739  233.699922
0.079253  233.113329
0.078212  232.859729
0.077409  232.706357
0.076680  232.573079
0.075958  232.448227
0.075219  232.327845
0.074480  232.206799
0.073774  232.078374
0.073104  231.943869
0.072434  231.806095
0.071757  231.663732
0.071075  231.515810
0.070387  231.362072
0.069693  231.201882
0.068990  231.035297
0.068283  230.860516
0.067568  230.677229
0.066847  230.484354
0.066121  230.282249
0.065388  230.071012
0.064650  229.849332
0.063904  229.617018
0.063151  229.372824
0.062391  229.115751
0.061624  228.845863
0.060848  228.562715
0.060067  228.265161
0.059279  227.951556
0.058486  227.621108
0.057688  227.272314
0.056885  226.904193
0.056075  226.512532
0.055259  226.098534
0.054437  225.659115
0.053611  225.198855
0.052782  224.713351
0.051952  224.202304
0.051121  223.662106
0.050288  223.091483
0.049457  222.489999
0.048649  221.871710
0.047866  221.239440
0.047111  220.595895
0.046369  219.929478
0.045653  219.248874
0.044963  218.553092
0.044297  217.842907
0.043656  217.119782
0.043040  216.383662
0.042448  215.635147
0.041881  214.875005
0.041338  214.102419
0.040820  213.319117
0.040326  212.525078
0.039857  211.721848
0.039412  210.909501
0.038990  210.089031
0.038592  209.261572
0.038218  208.425196
0.037869  207.577815
0.037542  206.718787
0.037241  205.842965
0.036963  204.951766
0.036707  204.044005
0.036476  203.118951
0.036266  202.180091
0.036079  201.228644
0.035914  200.265757
0.035769  199.294285
0.035648  198.314179
0.035553  197.327023
0.035485  196.334280
0.035445  195.339091
0.035435  194.343230
0.035449  193.349484
0.035491  192.360224
0.035558  191.378409
0.035651  190.406661
0.035771  189.445371
0.035915  188.496900
0.036092  187.565928
0.036293  186.653436
0.036522  185.761943
0.036784  184.897860
0.037069  184.056552
0.037379  183.249230
0.037705  182.479627
0.038047  181.749567
0.038404  181.057327
0.038776  180.402817
0.039163  179.789067
0.039560  179.212209
0.039966  178.671571
0.040382  178.166364
0.040806  177.699535
0.041235  177.264000
0.041667  176.858937
0.042102  176.483323
0.042539  176.136794
0.042978  175.820214
0.043418  175.528381
0.043858  175.262687
0.044297  175.021739
0.044735  174.804711
0.045171  174.609227
0.045604  174.434298
0.046035  174.279550
0.046462  174.143152
0.046885  174.024000
0.047306  173.920393
0.047720  173.832595
0.048120  173.756044
0.048514  173.690974
0.048902  173.638977
0.049275  173.600203
0.049638  173.570095
0.049988  173.546542
0.050323  173.529158
0.050640  173.514966
0.050936  173.503055
0.051213  173.489884
0.051518  173.469849
0.051808  173.446258
0.052085  173.415997
0.052349  173.379291
0.052593  173.333322
0.052824  173.278942
0.053035  173.212713
0.053232  173.137766
0.053403  173.051794
0.053568  172.957484
0.053691  172.857079
0.053801  172.747512
0.053894  172.631830
0.053935  172.531169
0.053955  172.417172
0.053948  172.296444
0.053873  172.204822
0.053752  172.139966
0.053569  172.035434
0.053334  171.939044
0.052869  171.914349
0.052308  171.963631
0.051630  172.057053
0.050842  172.225523
0.049567  172.654394
0.047831  173.355835
0.046068  174.144205
0.044275  174.889325
0.042384  175.617599
0.039842  175.941346
0.037336  176.107066
0.034882  175.868382
0.032472  175.301435
0.030032  173.379421
0.027698  170.811947
0.025550  167.482251
0.023610  163.402560
0.022053  158.063867
0.020804  151.909742
0.019947  145.057763
0.019486  137.780937
0.019515  130.299085
0.019937  123.060593
0.020759  116.480572
0.021878  110.635994
0.023229  105.360332
0.024759  100.794219
0.026426  97.034408
0.028177  93.870135
0.029954  91.099631
0.031965  88.001596
0.033928  85.476290
0.035758  83.485016
0.037494  81.831714
0.039028  80.516423
0.039759  80.057156
0.040212  80.111085
0.040612  80.329546
0.040946  80.661063
0.041217  81.012961
Q1
0.016891  220.769907
0.016608  218.965959
0.016237  216.790238
0.015904  215.482135
0.015608  214.571265
0.015372  214.001288
0.015210  213.678589
0.015088  213.430798
0.014976  213.203332
0.014865  212.982476
0.014751  212.760252
0.014637  212.536286
0.014529  212.315877
0.014425  212.102594
0.014320  211.892391
0.014213  211.685163
0.014106  211.479943
0.013997  211.275792
0.013887  211.070992
0.013775  210.864605
0.013663  210.656196
0.013549  210.446924
0.013434  210.235977
0.013319  210.021695
0.013203  209.803338
0.013086  209.579573
0.012967  209.350871
0.012848  209.117032
0.012728  208.877333
0.012607  208.630898
0.012485  208.376565
0.012362  208.114061
0.012238  207.843175
0.012114  207.563670
0.011989  207.274785
0.011863  206.977398
0.011736  206.670801
0.011608  206.352715
0.011478  206.024268
0.011348  205.679871
0.011218  205.320873
0.011087  204.946844
0.010955  204.557847
0.010823  204.153056
0.010691  203.730247
0.010561  203.300065
0.010435  202.865684
0.010313  202.426406
0.010192  201.975660
0.010074  201.519299
0.009960  201.056633
0.009849  200.588334
0.009741  200.114380
0.009636  199.634615
0.009535  199.149210
0.009436  198.658521
0.009341  198.162240
0.009249  197.661133
0.009160  197.154649
0.009073  196.643242
0.008990  196.126471
0.008910  195.604793
0.008833  195.078588
0.008760  194.545664
0.008689  194.004055
0.008621  193.452740
0.008556  192.887087
0.008495  192.308064
0.008435  191.714238
0.008380  191.103646
0.008326  190.478543
0.008276  189.839554
0.008228  189.186741
0.008183  188.522227
0.008141  187.843887
0.008103  187.151796
0.008069  186.445458
0.008039  185.727290
0.008013  184.995894
0.007991  184.255155
0.007974  183.504846
0.007961  182.747679
0.007953  181.983343
0.007949  181.212232
0.007949  180.439206
0.007956  179.663812
0.007967  178.888038
0.007984  178.114180
0.008007  177.345702
0.008036  176.582560
0.008070  175.833365
0.008108  175.105010
0.008150  174.399186
0.008197  173.716564
0.008247  173.057861
0.008302  172.427008
0.008360  171.821643
0.008421  171.242913
0.008485  170.690633
0.008552  170.168344
0.008621  169.671568
0.008692  169.199739
0.008764  168.752975
0.008838  168.331293
0.008913  167.935666
0.008989  167.561749
0.009065  167.211199
0.009142  166.883011
0.009219  166.576494
0.009297  166.289265
0.009375  166.021319
0.009452  165.771178
0.009529  165.538162
0.009606  165.321036
0.009683  165.118127
0.009759  164.930002
0.009831  164.755176
0.009903  164.591422
0.009974  164.441301
0.010043  164.307552
0.010110  164.184949
0.010174  164.072249
0.010235  163.970281
0.010293  163.877344
0.010347  163.792198
0.010397  163.713332
0.010451  163.623003
0.010502  163.534517
0.010550  163.447895
0.010595  163.360531
0.010636  163.272525
0.010674  163.182765
0.010709  163.090387
0.010740  162.994939
0.010768  162.898953
0.010794  162.800454
0.010815  162.703193
0.010833  162.605913
0.010850  162.510624
0.010861  162.426026
0.010870  162.345464
0.010874  162.272059
0.010873  162.214521
0.010866  162.182022
0.010849  162.147265
0.010825  162.132618
0.010766  162.202504
0.010694  162.346898
0.010604  162.553086
0.010500  162.841898
0.010331  163.440668
0.010104  164.358551
0.009878  165.355372
0.009651  166.350541
0.009415  167.383074
0.009089  168.401832
0.008769  169.384304
0.008449  170.202503
0.008132  170.928135
0.007779  171.099205
0.007429  171.115425
0.007085  170.941402
0.006750  170.623168
0.006429  169.806587
0.006119  168.804001
0.005821  167.580438
0.005537  166.154765
0.005277  164.274397
0.005033  162.140175
0.004811  159.719733
0.004609  157.043418
0.004424  154.036914
0.004259  150.800786
0.004120  147.393211
0.004005  143.845450
0.003906  140.212166
0.003793  135.971545
0.003708  131.834788
0.003650  128.009390
0.003612  124.402939
0.003591  121.246959
0.003595  119.874928
0.003621  119.274313
0.003657  118.879736
0.003697  118.674624
0.003736  118.581685
110.0      ! ANGINN : INNER ANGLE THRESHOLD
1			! NFFR