 ASGS %StormName%
 %EnsembleID%
1                                        ! NFOVER - NONFATAL ERROR OVERRIDE OPTION
0                                        ! NABOUT - ABREVIATED OUTPUT OPTION PARAMETER 
%NSCREEN%   ! output frequency (in time steps) to STDOUT or adcirc.log
%IHOT%                                   ! IHOT - HOT START OPTION PARAMETER
2                                        ! ICS - COORDINATE SYSTEM OPTION PARAMETER
111112                                  ! IM - MODEL RUN TYPE: 0,10,20,30 = 2DDI, 1,11,21,31 = 3D(VS), 2 = 3D(DSS)
1                                        ! NOLIBF - NONLINEAR BOTTOM FRICTION OPTION
2                                        ! NOLIFA - OPTION TO INCLUDE FINITE AMPLITUDE TERMS
1                                        ! NOLICA - OPTION TO INCLUDE CONVECTIVE ACCELERATION TERMS
1                                        ! NOLICAT - OPTION TO CONSIDER TIME DERIVATIVE OF CONV ACC TERMS
5                                        ! NWP - Number of nodal attributes.
mannings_n_at_sea_floor
primitive_weighting_in_continuity_equation
sea_surface_height_above_geoid
surface_canopy_coefficient
surface_directional_effective_roughness_length
1                                        ! NCOR - VARIABLE CORIOLIS IN SPACE OPTION PARAMETER
1                                        ! NTIP - TIDAL POTENTIAL OPTION PARAMETER
-12                                       ! NWS - WIND STRESS AND BAROMETRIC PRESSURE OPTION PARAMETER
1                                        ! NRAMP - RAMP FUNCTION OPTION
9.80665                                  ! G - ACCELERATION DUE TO GRAVITY - DETERMINES UNITS
-3.0                                     ! TAU0 - WEIGHTING FACTOR IN GWCE
1.0000                                   ! DT - TIME STEP (IN SECONDS)
0.00000                                  ! STATIM - STARTING SIMULATION TIME IN DAYS
0.00000                                  ! REFTIME - REFERENCE TIME (IN DAYS) FOR NODAL FACTORS AND EQUILIBRIUM ARGS
10800                                    ! YYYY,MM,DD,HH24,StormNumber,BLAdj
%RNDAY%                                  ! RNDAY - TOTAL LENGTH OF SIMULATION (IN DAYS)
5                                  ! DRAMP - DURATION OF RAMP FUNCTION (IN DAYS)
0.0000 1.000000 0.00000                  ! TIME WEIGHTING FACTORS FOR THE GWCE EQUATION
0.100000 0 0 0.050000                    ! H0, NODEDRYMIN, NODEWETMIN, VELMIN - MINIMUM WATER DEPTH AND DRYING/WETTING OPTIONS
-74.442948 25.246740                     ! SLAM0, SFEA0 - LONGITUDE AND LATITUDE ON WHICH THE CPP COORDINATE PROJECTION IS CENTERED
0.003  1. 10. 0.33333                    ! FFACTOR - 2DDI BOTTOM FRICTION COEFFICIENT
2.000000                                 ! ESLM - SPATIALLY CONSTANT HORIZONTAL EDDY VISCOSITY FOR THE MOMENTUM EQUATIONS
0.000100                                ! CORI - CONSTANT CORIOLIS COEFFICIENT
8                                        ! NTIF - NUMBER OF TIDAL POTENTIAL CONSTITUENTS
K1                                       ! TIPOTAG - NAME OF TIDAL POTENTIAL CONSTITUENT
0.14156500 0.000072921158358 0.736 0.930 264.664   ! TPK, AMIGT, ETRF, FFT, FACET - CONSTITUENT PROPERTIES
K2                                       ! TIPOTAG - NAME OF TIDAL POTENTIAL CONSTITUENT
0.03070400 0.000145842317201 0.693 0.828 350.106   ! TPK, AMIGT, ETRF, FFT, FACET - CONSTITUENT PROPERTIES
M2                                       ! TIPOTAG - NAME OF TIDAL POTENTIAL CONSTITUENT
0.24233400 0.000140518902509 0.693 1.026 175.054   ! TPK, AMIGT, ETRF, FFT, FACET - CONSTITUENT PROPERTIES
N2                                       ! TIPOTAG - NAME OF TIDAL POTENTIAL CONSTITUENT
0.04639800 0.000137879699487 0.693 1.026 186.428   ! TPK, AMIGT, ETRF, FFT, FACET - CONSTITUENT PROPERTIES
O1                                       ! TIPOTAG - NAME OF TIDAL POTENTIAL CONSTITUENT
0.10051400 0.000067597744151 0.695 0.885 274.114   ! TPK, AMIGT, ETRF, FFT, FACET - CONSTITUENT PROPERTIES
P1                                       ! TIPOTAG - NAME OF TIDAL POTENTIAL CONSTITUENT
0.04683400 0.000072522945975 0.706 1.000 88.080    ! TPK, AMIGT, ETRF, FFT, FACET - CONSTITUENT PROPERTIES
Q1                                       ! TIPOTAG - NAME OF TIDAL POTENTIAL CONSTITUENT
0.01925600 0.000064958541129 0.695 0.885 285.487   ! TPK, AMIGT, ETRF, FFT, FACET - CONSTITUENT PROPERTIES
S2                                       ! TIPOTAG - NAME OF TIDAL POTENTIAL CONSTITUENT
0.11284100 0.000145444104333 0.693 1.000 0.000     ! TPK, AMIGT, ETRF, FFT, FACET - CONSTITUENT PROPERTIES
8                                        ! NBFR - NUMBER OF PERIODIC FORCING FREQUENCIES ON ELEVATION SPECIFIED BOUNDARIES
K1                                       ! BOUNTAG - FORCING CONSTITUENT NAME
0.000072921158358 0.930 264.664
K2                                       ! BOUNTAG - FORCING CONSTITUENT NAME
0.000145842317201 0.828 350.106
M2                                       ! BOUNTAG - FORCING CONSTITUENT NAME
0.000140518902509 1.026 175.054
N2                                       ! BOUNTAG - FORCING CONSTITUENT NAME
0.000137879699487 1.026 186.428
O1                                       ! BOUNTAG - FORCING CONSTITUENT NAME
0.000067597744151 0.885 274.114
P1                                       ! BOUNTAG - FORCING CONSTITUENT NAME
0.000072522945975 1.000 88.080
Q1                                       ! BOUNTAG - FORCING CONSTITUENT NAME
0.000064958541129 0.885 285.487
S2                                       ! BOUNTAG - FORCING CONSTITUENT NAME
0.000145444104333 1.000 0.000
K1                                       ! EALPHA - FORCING CONSTITUENT NAME AGAIN
0.095380 236.608                         ! EMO, EFA
0.095442 236.610                         ! EMO, EFA
0.095511 236.612                         ! EMO, EFA
0.095603 236.615                         ! EMO, EFA
0.094542 236.381                         ! EMO, EFA
0.093382 236.121                         ! EMO, EFA
0.092438 235.902                         ! EMO, EFA
0.091688 235.736                         ! EMO, EFA
0.090884 235.563                         ! EMO, EFA
0.090076 235.382                         ! EMO, EFA
0.089367 235.217                         ! EMO, EFA
0.088697 235.052                         ! EMO, EFA
0.088160 234.865                         ! EMO, EFA
0.087478 234.632                         ! EMO, EFA
0.086725 234.378                         ! EMO, EFA
0.086192 234.148                         ! EMO, EFA
0.085587 233.879                         ! EMO, EFA
0.084987 233.593                         ! EMO, EFA
0.084477 233.283                         ! EMO, EFA
0.083806 232.877                         ! EMO, EFA
0.082961 232.358                         ! EMO, EFA
0.081996 231.855                         ! EMO, EFA
0.081017 231.366                         ! EMO, EFA
0.080068 230.856                         ! EMO, EFA
0.079196 230.345                         ! EMO, EFA
0.078538 229.946                         ! EMO, EFA
0.077927 229.567                         ! EMO, EFA
0.077385 229.224                         ! EMO, EFA
0.076947 228.951                         ! EMO, EFA
0.076469 228.662                         ! EMO, EFA
0.076004 228.379                         ! EMO, EFA
0.075591 228.124                         ! EMO, EFA
0.075171 227.837                         ! EMO, EFA
0.074718 227.523                         ! EMO, EFA
0.074284 227.216                         ! EMO, EFA
0.073885 226.914                         ! EMO, EFA
0.073516 226.624                         ! EMO, EFA
0.073148 226.330                         ! EMO, EFA
0.072725 225.971                         ! EMO, EFA
0.072301 225.596                         ! EMO, EFA
0.071924 225.255                         ! EMO, EFA
0.071569 224.911                         ! EMO, EFA
0.071194 224.520                         ! EMO, EFA
0.070786 224.087                         ! EMO, EFA
0.070327 223.603                         ! EMO, EFA
0.069807 223.057                         ! EMO, EFA
0.069270 222.472                         ! EMO, EFA
0.068712 221.826                         ! EMO, EFA
0.068129 221.137                         ! EMO, EFA
0.067482 220.360                         ! EMO, EFA
0.066812 219.535                         ! EMO, EFA
0.066105 218.658                         ! EMO, EFA
0.065183 217.576                         ! EMO, EFA
0.064183 216.253                         ! EMO, EFA
0.062970 214.608                         ! EMO, EFA
0.061650 212.676                         ! EMO, EFA
0.060256 210.370                         ! EMO, EFA
0.058954 208.057                         ! EMO, EFA
0.057803 205.779                         ! EMO, EFA
0.056776 203.475                         ! EMO, EFA
0.055864 201.033                         ! EMO, EFA
0.055108 198.617                         ! EMO, EFA
0.054496 196.133                         ! EMO, EFA
0.054051 193.689                         ! EMO, EFA
0.053718 191.296                         ! EMO, EFA
0.053501 188.957                         ! EMO, EFA
0.053417 186.777                         ! EMO, EFA
0.053500 184.620                         ! EMO, EFA
0.053628 182.588                         ! EMO, EFA
0.053821 180.719                         ! EMO, EFA
0.054090 178.967                         ! EMO, EFA
0.054484 177.245                         ! EMO, EFA
0.054841 175.717                         ! EMO, EFA
0.055176 174.417                         ! EMO, EFA
0.055655 173.057                         ! EMO, EFA
0.056152 171.758                         ! EMO, EFA
0.056735 170.557                         ! EMO, EFA
0.057300 169.414                         ! EMO, EFA
0.057873 168.344                         ! EMO, EFA
0.058364 167.474                         ! EMO, EFA
0.058866 166.703                         ! EMO, EFA
0.059200 166.200                         ! EMO, EFA
0.059463 165.812                         ! EMO, EFA
0.059717 165.503                         ! EMO, EFA
0.059927 165.195                         ! EMO, EFA
0.060094 164.956                         ! EMO, EFA
0.060247 164.825                         ! EMO, EFA
0.060408 164.692                         ! EMO, EFA
0.060603 164.549                         ! EMO, EFA
0.060877 164.384                         ! EMO, EFA
0.061068 164.224                         ! EMO, EFA
0.061156 164.130                         ! EMO, EFA
0.061410 163.871                         ! EMO, EFA
0.062232 163.016                         ! EMO, EFA
0.058655 159.088                         ! EMO, EFA
0.051037 149.907                         ! EMO, EFA
0.046213 140.773                         ! EMO, EFA
0.044403 134.393                         ! EMO, EFA
0.044305 131.209                         ! EMO, EFA
0.044318 128.602                         ! EMO, EFA
0.044402 126.223                         ! EMO, EFA
0.044573 123.622                         ! EMO, EFA
0.044845 120.891                         ! EMO, EFA
0.044867 117.677                         ! EMO, EFA
0.044880 114.407                         ! EMO, EFA
0.045001 111.364                         ! EMO, EFA
0.045215 108.462                         ! EMO, EFA
0.045516 105.654                         ! EMO, EFA
0.045897 102.937                         ! EMO, EFA
0.046177 99.779                          ! EMO, EFA
0.046474 96.338                          ! EMO, EFA
0.046912 93.008                          ! EMO, EFA
0.047485 89.774                          ! EMO, EFA
0.048223 86.496                          ! EMO, EFA
0.049148 83.155                          ! EMO, EFA
0.050128 80.188                          ! EMO, EFA
0.050018 80.034                          ! EMO, EFA
0.049858 80.022                          ! EMO, EFA
0.049703 80.011                          ! EMO, EFA
0.049560 80.001                          ! EMO, EFA
0.049435 79.992                          ! EMO, EFA
0.049321 79.984                          ! EMO, EFA
K2                                       ! EALPHA - FORCING CONSTITUENT NAME AGAIN
0.045320 236.154                         ! EMO, EFA
0.045435 236.166                         ! EMO, EFA
0.045563 236.179                         ! EMO, EFA
0.045734 236.197                         ! EMO, EFA
0.043896 235.856                         ! EMO, EFA
0.041863 235.451                         ! EMO, EFA
0.040194 235.089                         ! EMO, EFA
0.038856 234.795                         ! EMO, EFA
0.037415 234.469                         ! EMO, EFA
0.035964 234.113                         ! EMO, EFA
0.034686 233.774                         ! EMO, EFA
0.033471 233.423                         ! EMO, EFA
0.032432 233.066                         ! EMO, EFA
0.031109 232.560                         ! EMO, EFA
0.029648 231.927                         ! EMO, EFA
0.028268 231.593                         ! EMO, EFA
0.026627 231.208                         ! EMO, EFA
0.024969 230.858                         ! EMO, EFA
0.023461 230.801                         ! EMO, EFA
0.021562 230.783                         ! EMO, EFA
0.019991 231.243                         ! EMO, EFA
0.018752 231.830                         ! EMO, EFA
0.017680 232.440                         ! EMO, EFA
0.016603 233.012                         ! EMO, EFA
0.015717 233.531                         ! EMO, EFA
0.015063 233.948                         ! EMO, EFA
0.014509 234.216                         ! EMO, EFA
0.014013 234.478                         ! EMO, EFA
0.013689 234.734                         ! EMO, EFA
0.013442 235.064                         ! EMO, EFA
0.013206 235.399                         ! EMO, EFA
0.012995 235.703                         ! EMO, EFA
0.012714 235.797                         ! EMO, EFA
0.012414 235.895                         ! EMO, EFA
0.012127 235.986                         ! EMO, EFA
0.011825 236.311                         ! EMO, EFA
0.011527 236.745                         ! EMO, EFA
0.011231 237.207                         ! EMO, EFA
0.010867 237.651                         ! EMO, EFA
0.010478 238.075                         ! EMO, EFA
0.010136 238.477                         ! EMO, EFA
0.009746 238.884                         ! EMO, EFA
0.009251 239.352                         ! EMO, EFA
0.008712 239.906                         ! EMO, EFA
0.008172 240.799                         ! EMO, EFA
0.007629 242.168                         ! EMO, EFA
0.007050 243.874                         ! EMO, EFA
0.006388 246.209                         ! EMO, EFA
0.005687 249.349                         ! EMO, EFA
0.004908 254.121                         ! EMO, EFA
0.004250 260.691                         ! EMO, EFA
0.003687 269.711                         ! EMO, EFA
0.003204 283.897                         ! EMO, EFA
0.003017 305.045                         ! EMO, EFA
0.003238 328.739                         ! EMO, EFA
0.004041 346.683                         ! EMO, EFA
0.005146 358.506                         ! EMO, EFA
0.006396 5.488                           ! EMO, EFA
0.007506 9.611                           ! EMO, EFA
0.008651 12.450                          ! EMO, EFA
0.009740 14.602                          ! EMO, EFA
0.010861 16.265                          ! EMO, EFA
0.011941 17.480                          ! EMO, EFA
0.012947 18.385                          ! EMO, EFA
0.013874 19.072                          ! EMO, EFA
0.014785 19.637                          ! EMO, EFA
0.015684 20.124                          ! EMO, EFA
0.016512 20.562                          ! EMO, EFA
0.017306 20.896                          ! EMO, EFA
0.018001 21.124                          ! EMO, EFA
0.018701 21.272                          ! EMO, EFA
0.019410 21.411                          ! EMO, EFA
0.019976 21.492                          ! EMO, EFA
0.020512 21.500                          ! EMO, EFA
0.021022 21.466                          ! EMO, EFA
0.021506 21.330                          ! EMO, EFA
0.021930 21.158                          ! EMO, EFA
0.022350 20.922                          ! EMO, EFA
0.022725 20.642                          ! EMO, EFA
0.023080 20.369                          ! EMO, EFA
0.023363 20.016                          ! EMO, EFA
0.023627 19.727                          ! EMO, EFA
0.023788 19.499                          ! EMO, EFA
0.023947 19.202                          ! EMO, EFA
0.024104 18.846                          ! EMO, EFA
0.024267 18.502                          ! EMO, EFA
0.024447 18.197                          ! EMO, EFA
0.024599 17.866                          ! EMO, EFA
0.024751 17.453                          ! EMO, EFA
0.024916 16.905                          ! EMO, EFA
0.025076 16.359                          ! EMO, EFA
0.025182 15.783                          ! EMO, EFA
0.025304 15.221                          ! EMO, EFA
0.025543 14.739                          ! EMO, EFA
0.026248 15.592                          ! EMO, EFA
0.027555 17.795                          ! EMO, EFA
0.028610 19.398                          ! EMO, EFA
0.029239 20.052                          ! EMO, EFA
0.029517 20.021                          ! EMO, EFA
0.029746 19.997                          ! EMO, EFA
0.029955 19.977                          ! EMO, EFA
0.030187 19.955                          ! EMO, EFA
0.030433 19.934                          ! EMO, EFA
0.030549 19.891                          ! EMO, EFA
0.030614 19.843                          ! EMO, EFA
0.030677 19.800                          ! EMO, EFA
0.030740 19.761                          ! EMO, EFA
0.030804 19.725                          ! EMO, EFA
0.030870 19.691                          ! EMO, EFA
0.030853 19.676                          ! EMO, EFA
0.030782 19.673                          ! EMO, EFA
0.030712 19.672                          ! EMO, EFA
0.030643 19.673                          ! EMO, EFA
0.030572 19.677                          ! EMO, EFA
0.030499 19.683                          ! EMO, EFA
0.030432 19.691                          ! EMO, EFA
0.030426 19.709                          ! EMO, EFA
0.030424 19.726                          ! EMO, EFA
0.030422 19.742                          ! EMO, EFA
0.030419 19.757                          ! EMO, EFA
0.030418 19.770                          ! EMO, EFA
0.030416 19.782                          ! EMO, EFA
M2                                       ! EALPHA - FORCING CONSTITUENT NAME AGAIN
0.464171 215.036                         ! EMO, EFA
0.465249 215.044                         ! EMO, EFA
0.466450 215.052                         ! EMO, EFA
0.468049 215.064                         ! EMO, EFA
0.450497 214.807                         ! EMO, EFA
0.431126 214.508                         ! EMO, EFA
0.415258 214.248                         ! EMO, EFA
0.402434 214.028                         ! EMO, EFA
0.388510 213.772                         ! EMO, EFA
0.374489 213.494                         ! EMO, EFA
0.362136 213.229                         ! EMO, EFA
0.350346 212.954                         ! EMO, EFA
0.339819 212.635                         ! EMO, EFA
0.326445 212.182                         ! EMO, EFA
0.311705 211.618                         ! EMO, EFA
0.297763 211.314                         ! EMO, EFA
0.281161 210.964                         ! EMO, EFA
0.264364 210.643                         ! EMO, EFA
0.249072 210.569                         ! EMO, EFA
0.229814 210.523                         ! EMO, EFA
0.213528 210.951                         ! EMO, EFA
0.200055 211.516                         ! EMO, EFA
0.188118 212.130                         ! EMO, EFA
0.176061 212.765                         ! EMO, EFA
0.165315 213.474                         ! EMO, EFA
0.157215 214.082                         ! EMO, EFA
0.149672 214.680                         ! EMO, EFA
0.142958 215.266                         ! EMO, EFA
0.138259 215.809                         ! EMO, EFA
0.134155 216.481                         ! EMO, EFA
0.130212 217.176                         ! EMO, EFA
0.126698 217.833                         ! EMO, EFA
0.122386 218.504                         ! EMO, EFA
0.117764 219.279                         ! EMO, EFA
0.113338 220.084                         ! EMO, EFA
0.108762 221.054                         ! EMO, EFA
0.104291 222.120                         ! EMO, EFA
0.099853 223.287                         ! EMO, EFA
0.094546 224.767                         ! EMO, EFA
0.089093 226.445                         ! EMO, EFA
0.084326 228.119                         ! EMO, EFA
0.079075 230.193                         ! EMO, EFA
0.072670 233.158                         ! EMO, EFA
0.065915 237.064                         ! EMO, EFA
0.059783 242.030                         ! EMO, EFA
0.054490 248.301                         ! EMO, EFA
0.049638 256.509                         ! EMO, EFA
0.045486 268.078                         ! EMO, EFA
0.043580 282.066                         ! EMO, EFA
0.044898 297.907                         ! EMO, EFA
0.049548 311.246                         ! EMO, EFA
0.056600 321.734                         ! EMO, EFA
0.066657 330.454                         ! EMO, EFA
0.080342 337.643                         ! EMO, EFA
0.097119 343.190                         ! EMO, EFA
0.115617 347.024                         ! EMO, EFA
0.135878 349.782                         ! EMO, EFA
0.155290 351.599                         ! EMO, EFA
0.173000 352.760                         ! EMO, EFA
0.189923 353.548                         ! EMO, EFA
0.206615 354.223                         ! EMO, EFA
0.222739 354.720                         ! EMO, EFA
0.238258 355.015                         ! EMO, EFA
0.252790 355.218                         ! EMO, EFA
0.266517 355.344                         ! EMO, EFA
0.279643 355.457                         ! EMO, EFA
0.292068 355.478                         ! EMO, EFA
0.304027 355.495                         ! EMO, EFA
0.315214 355.427                         ! EMO, EFA
0.325471 355.351                         ! EMO, EFA
0.335401 355.255                         ! EMO, EFA
0.345044 355.130                         ! EMO, EFA
0.353590 354.972                         ! EMO, EFA
0.361097 354.797                         ! EMO, EFA
0.368590 354.580                         ! EMO, EFA
0.375763 354.233                         ! EMO, EFA
0.382169 353.932                         ! EMO, EFA
0.388478 353.516                         ! EMO, EFA
0.394836 353.090                         ! EMO, EFA
0.400630 352.604                         ! EMO, EFA
0.405727 352.135                         ! EMO, EFA
0.409863 351.735                         ! EMO, EFA
0.413183 351.418                         ! EMO, EFA
0.416640 351.031                         ! EMO, EFA
0.420167 350.589                         ! EMO, EFA
0.423383 350.169                         ! EMO, EFA
0.426249 349.789                         ! EMO, EFA
0.429313 349.301                         ! EMO, EFA
0.432788 348.695                         ! EMO, EFA
0.436404 348.035                         ! EMO, EFA
0.439652 347.343                         ! EMO, EFA
0.442230 346.629                         ! EMO, EFA
0.445020 345.916                         ! EMO, EFA
0.449264 345.273                         ! EMO, EFA
0.460877 345.447                         ! EMO, EFA
0.481527 346.451                         ! EMO, EFA
0.497850 347.189                         ! EMO, EFA
0.507319 347.376                         ! EMO, EFA
0.511336 347.159                         ! EMO, EFA
0.514637 346.984                         ! EMO, EFA
0.517668 346.828                         ! EMO, EFA
0.521015 346.658                         ! EMO, EFA
0.524578 346.481                         ! EMO, EFA
0.526089 346.261                         ! EMO, EFA
0.526780 346.037                         ! EMO, EFA
0.527449 345.828                         ! EMO, EFA
0.528113 345.630                         ! EMO, EFA
0.528784 345.437                         ! EMO, EFA
0.529462 345.250                         ! EMO, EFA
0.528899 345.054                         ! EMO, EFA
0.527506 344.853                         ! EMO, EFA
0.526148 344.656                         ! EMO, EFA
0.524812 344.462                         ! EMO, EFA
0.523432 344.261                         ! EMO, EFA
0.521992 344.051                         ! EMO, EFA
0.520675 343.858                         ! EMO, EFA
0.520421 343.861                         ! EMO, EFA
0.520234 343.873                         ! EMO, EFA
0.520053 343.885                         ! EMO, EFA
0.519887 343.896                         ! EMO, EFA
0.519741 343.905                         ! EMO, EFA
0.519607 343.914                         ! EMO, EFA
N2                                       ! EALPHA - FORCING CONSTITUENT NAME AGAIN
0.103123 199.671                         ! EMO, EFA
0.103350 199.687                         ! EMO, EFA
0.103602 199.704                         ! EMO, EFA
0.103938 199.727                         ! EMO, EFA
0.100161 199.410                         ! EMO, EFA
0.095994 199.034                         ! EMO, EFA
0.092580 198.700                         ! EMO, EFA
0.089842 198.432                         ! EMO, EFA
0.086888 198.140                         ! EMO, EFA
0.083912 197.823                         ! EMO, EFA
0.081290 197.524                         ! EMO, EFA
0.078791 197.214                         ! EMO, EFA
0.076590 196.864                         ! EMO, EFA
0.073798 196.372                         ! EMO, EFA
0.070726 195.764                         ! EMO, EFA
0.067816 195.427                         ! EMO, EFA
0.064351 195.037                         ! EMO, EFA
0.060842 194.657                         ! EMO, EFA
0.057631 194.465                         ! EMO, EFA
0.053581 194.247                         ! EMO, EFA
0.050115 194.493                         ! EMO, EFA
0.047233 194.902                         ! EMO, EFA
0.044676 195.399                         ! EMO, EFA
0.042106 195.932                         ! EMO, EFA
0.039729 196.587                         ! EMO, EFA
0.037930 197.166                         ! EMO, EFA
0.036266 197.877                         ! EMO, EFA
0.034787 198.569                         ! EMO, EFA
0.033735 199.196                         ! EMO, EFA
0.032785 199.954                         ! EMO, EFA
0.031873 200.735                         ! EMO, EFA
0.031061 201.473                         ! EMO, EFA
0.030101 202.243                         ! EMO, EFA
0.029073 203.132                         ! EMO, EFA
0.028091 204.050                         ! EMO, EFA
0.027083 205.083                         ! EMO, EFA
0.026101 206.185                         ! EMO, EFA
0.025129 207.378                         ! EMO, EFA
0.023966 208.887                         ! EMO, EFA
0.022774 210.566                         ! EMO, EFA
0.021734 212.220                         ! EMO, EFA
0.020619 214.240                         ! EMO, EFA
0.019292 217.058                         ! EMO, EFA
0.017900 220.631                         ! EMO, EFA
0.016609 224.873                         ! EMO, EFA
0.015444 229.905                         ! EMO, EFA
0.014344 236.232                         ! EMO, EFA
0.013324 244.816                         ! EMO, EFA
0.012641 255.151                         ! EMO, EFA
0.012452 267.546                         ! EMO, EFA
0.012949 279.237                         ! EMO, EFA
0.013981 289.648                         ! EMO, EFA
0.015645 299.516                         ! EMO, EFA
0.018185 308.380                         ! EMO, EFA
0.021576 315.704                         ! EMO, EFA
0.025432 320.985                         ! EMO, EFA
0.029783 324.968                         ! EMO, EFA
0.033986 327.644                         ! EMO, EFA
0.037879 329.366                         ! EMO, EFA
0.041662 330.691                         ! EMO, EFA
0.045351 331.732                         ! EMO, EFA
0.049006 332.545                         ! EMO, EFA
0.052490 333.147                         ! EMO, EFA
0.055763 333.562                         ! EMO, EFA
0.058857 333.866                         ! EMO, EFA
0.061835 334.057                         ! EMO, EFA
0.064638 334.240                         ! EMO, EFA
0.067377 334.385                         ! EMO, EFA
0.069924 334.428                         ! EMO, EFA
0.072260 334.424                         ! EMO, EFA
0.074530 334.420                         ! EMO, EFA
0.076768 334.384                         ! EMO, EFA
0.078770 334.272                         ! EMO, EFA
0.080508 334.144                         ! EMO, EFA
0.082213 333.880                         ! EMO, EFA
0.083908 333.603                         ! EMO, EFA
0.085373 333.232                         ! EMO, EFA
0.086827 332.829                         ! EMO, EFA
0.088315 332.396                         ! EMO, EFA
0.089593 331.972                         ! EMO, EFA
0.090717 331.419                         ! EMO, EFA
0.091633 331.000                         ! EMO, EFA
0.092358 330.611                         ! EMO, EFA
0.093066 330.155                         ! EMO, EFA
0.093823 329.742                         ! EMO, EFA
0.094505 329.352                         ! EMO, EFA
0.095064 328.920                         ! EMO, EFA
0.095657 328.416                         ! EMO, EFA