NCSC_SAB_v1.15    ! 30 CHARACTER ALPHANUM RUN DESCRIPTION
ASGS 2021 RENCI                  ! 20 CHARACTER ALPANUMERIC RUN IDENTIFICATION
1 20.0 1 20 100.0         ! NFOVER NONFATA OVERRIDE,WARNING ELEV, FORT.69, KILL RUN ELEV
1                         ! NABOUT - ABREVIATED OUTPUT OPTION PARAMETER
-1000                     ! NSCREEN - UNIT 6 OUTPUT OPTION PARAMETER
%IHOT%                       ! IHOT - HOT START
2                     ! ICS - COORDINATE SYSTEM SELECTION PARAMETER
511112                    ! IM - MODEL SELECTION PARAMETER
1                     ! NOLIBF - BOTTOM FRICTION TERM SELECTION PARAM
2                     ! NOLIFA - FINITE AMPLITUDE TERM SELECTION PARAMETER
1                     ! NOLICA - SPATIAL DERIVATIVE CONVECTIVE SELECTION PARAMETER
1                     ! NOLICAT - TIME DERIVATIVE CONVECTIVE TERM SELECTION PARAMETER
7                     ! NWP 
primitive_weighting_in_continuity_equation
mannings_n_at_sea_floor
surface_canopy_coefficient
surface_directional_effective_roughness_length
overland_reduction_factor
elemental_slope_limiter
advection_state
1                         ! NCOR - VARIABLE CORIOLIS IN SPACE
1                     ! NTIP - TIDAL POTENTIAL OPTION PARAMETER
%NWS%                      ! NWS - WIND STRESS AND BAROMETRIC PRESSURE OPTION PARAMETER
1                          ! NRAMP - RAMP FUNCTION OPTION
9.81                  ! G - ACCELERATION DUE TO GRAVITY - DETERMINES UNITS
-3                      ! TAU0 - WEIGHTING FACTOR IN GWCE; original, 0.005
%DT%                      ! DT - TIME STEP (IN SECONDS)
0.00                   ! STATIM - STARTING TIME (IN DAYS)
0.00                       ! REFTIM - REFERENCE TIME (IN DAYS)
%WTIMINC%                  ! WTIMINC RSTIMINC in seconds
%RNDAY%                 ! RNDAY - TOTAL LENGTH OF SIMULATION (IN DAYS)
14.0                     ! DRAMP, DURATION OF RAMP FUNCTION (IN DAYS)
0.0 1.0 0.0               ! TIME WEIGHTING FACTORS FOR THE GWCE EQUATION
0.1 0 0 .01               ! H0 MINIMUM CUTOFF DEPTH, NODEDRYMIN, NODEWETRMP, VELMIN
-71.0 27.0            ! SLAM0,SFEA0 - CENTER OF CPP PROJECTION (NOT USED IF ICS=1, NTIP=0, NCOR=0)
0.001 1. 10. 0.33333      ! FFACTOR - BOTTOM FRICTION COEFFICIENT
-0.20                     ! ESL - LATERAL EDDY VISCOSITY COEFFICIENT
0.0                      ! CORI - CORIOLIS PARAMETER - IGNORED IF NCOR = 1
8           ! NTIF 
Q1 
0.019303  6.495854130e-05 0.695000  %Q1NF%  %Q1EQARG%
O1 
0.100818  6.759774407e-05 0.695000  %O1NF%  %O1EQARG%
P1 
0.047037  7.252294576e-05 0.706000  %P1NF%  %P1EQARG%
K1 
0.141909  7.292115851e-05 0.736000  %K1NF%  %K1EQARG%
M2 
0.242922  1.405189028e-04 0.693000  %M2NF%  %M2EQARG%
N2 
0.046510  1.378796998e-04 0.693000  %N2NF%  %N2EQARG%
S2 
0.113308  1.454441043e-04 0.693000  %S2NF%  %S2EQARG%
K2 
0.030779  1.458423170e-04 0.693000  %K2NF%  %K2EQARG%
8           ! NBFR 
Q1  
 6.495854130e-05 %Q1NF%  %Q1EQARG%
O1  
 6.759774407e-05 %O1NF%  %O1EQARG%
P1  
 7.252294576e-05 %P1NF%  %P1EQARG%
K1  
 7.292115851e-05 %K1NF%  %K1EQARG%
N2  
 1.378796998e-04 %N2NF%  %N2EQARG%
M2  
 1.405189028e-04 %M2NF%  %M2EQARG%
S2  
 1.454441043e-04 %S2NF%  %S2EQARG%
K2  
 1.458423170e-04 %K2NF%  %K2EQARG%
Q1 
 1.702938637e-02      220.2363583 
 1.643944004e-02      217.7414248 
 1.640121947e-02       217.568592 
 1.500000000e-02      216.8698976 
 1.500000000e-02      216.8698976 
 1.442220510e-02      213.6900675 
 1.442220510e-02      213.6900675 
 1.442220510e-02      213.6900675 
 1.442220510e-02      213.6900675 
 1.442220510e-02      213.6900675 
 1.442220510e-02      213.6900675 
 1.442220510e-02      213.6900675 
 1.442220510e-02      213.6900675 
 1.442220510e-02      213.6900675 
 1.442220510e-02      213.6900675 
 1.389244399e-02      210.2564372 
 1.389244399e-02      210.2564372 
 1.389244399e-02      210.2564372 
 1.389244399e-02      210.2564372 
 1.389244399e-02      210.2564372 
 1.389244399e-02      210.2564372 
 1.389244399e-02      210.2564372 
 1.389244399e-02      210.2564372 
 1.389244399e-02      210.2564372 
 1.303840481e-02      212.4711923 
 1.252996409e-02      208.6104597 
 1.252996409e-02      208.6104597 
 1.252996409e-02      208.6104597 
 1.252996409e-02      208.6104597 
 1.252996409e-02      208.6104597 
 1.252996409e-02      208.6104597 
 1.252996409e-02      208.6104597 
 1.252996409e-02      208.6104597 
 1.252996409e-02      208.6104597 
 1.208643449e-02      204.4792701 
 1.208304597e-02      204.4439548 
 1.118033989e-02      206.5650512 
 1.118033989e-02      206.5650512 
 1.118033989e-02      206.5650512 
 1.118033989e-02      206.5650512 
 1.118033989e-02      206.5650512 
 1.118033989e-02      206.5650512 
 1.118033989e-02      206.5650512 
 1.077032961e-02      201.8014095 
 1.077032961e-02      201.8014095 
 1.077032961e-02      201.8014095 
 1.077032961e-02      201.8014095 
 1.077032961e-02      201.8014095 
 9.848857802e-03       203.962489 
 9.848857802e-03       203.962489 
 9.848857802e-03       203.962489 
 9.486832981e-03      198.4349488 
 9.486832981e-03      198.4349488 
 9.486832981e-03      198.4349488 
 9.486832981e-03      198.4349488 
 9.486832981e-03      198.4349488 
 9.486832981e-03      198.4349488 
 9.486832981e-03      198.4349488 
 9.486832981e-03      198.4349488 
 9.486832981e-03      198.4349488 
 9.374982161e-03      196.2598309 
 9.219544457e-03      192.5288077 
 9.219544457e-03      192.5288077 
 8.246211251e-03      194.0362435 
 8.246211251e-03      194.0362435 
 8.246211251e-03      194.0362435 
 8.246211251e-03      194.0362435 
 8.246211251e-03      194.0362435 
 8.246211251e-03      194.0362435 
 8.246211251e-03      194.0362435 
 8.246211251e-03      194.0362435 
 8.062257748e-03      187.1250163 
 8.062257748e-03      187.1250163 
 8.062257748e-03      187.1250163 
 8.062257748e-03      187.1250163 
 8.062257748e-03      187.1250163 
 8.062257748e-03      187.1250163 
 8.062257748e-03      187.1250163 
 8.062257748e-03      187.1250163 
 8.062257748e-03      187.1250163 
 8.000000000e-03              180 
 8.000000000e-03              180 
 8.000000000e-03              180 
 8.000000000e-03              180 
 8.000000000e-03              180 
 8.000000000e-03              180 
 8.000000000e-03              180 
 8.000000000e-03              180 
 8.000000000e-03              180 
 8.000000000e-03              180 
 8.062257748e-03      172.8749837 
 8.062257748e-03      172.8749837 
 8.062257748e-03      172.8749837 
 8.062257748e-03      172.8749837 
 8.062257748e-03      172.8749837 
 8.062257748e-03      172.8749837 
 8.062257748e-03      172.8749837 
 8.062257748e-03      172.8749837 
 8.062257748e-03      172.8749837 
 8.062257748e-03      172.8749837 
 8.246211251e-03      165.9637565 
 9.219544457e-03      167.4711923 
 9.219544457e-03      167.4711923 
 9.219544457e-03      167.4711923 
 9.219544457e-03      167.4711923 
 9.219544457e-03      167.4711923 
 9.219544457e-03      167.4711923 
 9.219544457e-03      167.4711923 
 9.219544457e-03      167.4711923 
 9.219544457e-03      167.4711923 
 9.219544457e-03      167.4711923 
 9.219544457e-03      167.4711923 
 9.219544457e-03      167.4711923 
 9.219544457e-03      167.4711923 
 9.219544457e-03      167.4711923 
 9.486832981e-03      161.5650512 
 9.486832981e-03      161.5650512 
 1.044030651e-02      163.3007558 
 1.044030651e-02      163.3007558 
 1.044030651e-02      163.3007558 
 1.044030651e-02      163.3007558 
 1.044030651e-02      163.3007558 
 1.044030651e-02      163.3007558 
 1.044030651e-02      163.3007558 
 1.044030651e-02      163.3007558 
 1.044030651e-02      163.3007558 
 1.044030651e-02      163.3007558 
 1.044030651e-02      163.3007558 
 1.044030651e-02      163.3007558 
 1.044030651e-02      163.3007558 
 1.044030651e-02      163.3007558 
 1.044030651e-02      163.3007558 
 1.044030651e-02      163.3007558 
 1.044030651e-02      163.3007558 
 1.044030651e-02      163.3007558 
 1.044030651e-02      163.3007558 
 1.044030651e-02      163.3007558 
 1.044030651e-02      163.3007558 
 1.077032961e-02      158.1985905 
 1.077032961e-02      158.1985905 
 1.077032961e-02      158.1985905 
 1.077032961e-02      158.1985905 
 1.077032961e-02      158.1985905 
 1.077032961e-02      158.1985905 
 1.077032961e-02      158.1985905 
 1.001469861e-02      156.4585177 
 9.628184173e-03      159.1887118 
 9.486832981e-03      161.5650512 
 9.486832981e-03      161.5650512 
 9.486832981e-03      161.5650512 
 9.486832981e-03      161.5650512 
 9.486832981e-03      161.5650512 
 9.486832981e-03      161.5650512 
 9.233946271e-03      167.0752178 
 9.129433148e-03      167.3454875 
 8.246211251e-03      165.9637565 
 8.246211251e-03      165.9637565 
 8.237717534e-03      166.2020446 
 8.062312714e-03      172.8718594 
 7.071401443e-03      171.8702838 
 7.071067812e-03      171.8698976 
 7.071067812e-03      171.8698976 
 6.215937911e-03      170.7422094 
 6.082762530e-03      170.5376778 
 6.082762530e-03      170.5376778 
 5.431716592e-03      169.3911099 
 5.099019514e-03      168.6900675 
 5.099019514e-03      168.6900675 
 4.726028582e-03      167.7842101 
 4.123105626e-03      165.9637565 
 4.151460007e-03      164.4755761 
 4.123380824e-03      165.9484688 
 4.428751293e-03      153.1539761 
 3.605551275e-03      146.3099325 
 3.605551275e-03      146.3099325 
 3.605551275e-03      146.3099325 
 3.605551275e-03      146.3099325 
 3.313225175e-03      142.8688562 
 2.828427125e-03              135 
 2.828427125e-03              135 
 2.828427125e-03              135 
 2.828427125e-03              135 
 2.828427125e-03              135 
 2.538581212e-03       128.015735 
 2.236238796e-03      116.5738031 
 2.236067977e-03      116.5650512 
O1 
 9.013878189e-02      236.3099325 
 8.797237190e-02      236.1518987 
 8.602325267e-02      234.4623222 
 8.300602388e-02      233.8203796 
 8.112482181e-02      232.8425446 
 7.963005072e-02      232.2939173 
 7.826694899e-02       232.172539 
 7.762087348e-02      231.8013148 
 7.621679605e-02      231.9272181 
 7.543208866e-02      231.4588164 
 7.543208866e-02      231.4588164 
 7.402702209e-02      231.5819447 
 7.340980861e-02      232.1934701 
 7.340980861e-02      232.1934701 
 7.262231062e-02      231.7098368 
 7.169962106e-02      231.3555476 
 7.121797526e-02      231.8427734 
 7.043436661e-02      231.3401917 
 6.965629907e-02       230.826342 
 6.902897942e-02        231.46982 
 6.824954212e-02      230.9468631 
 6.747592163e-02      230.4118692 
 6.747592163e-02      230.4118692 
 6.606814664e-02      230.5275402 
 6.529931087e-02      229.9697407 
 6.453681120e-02      229.3987054 
 6.389053138e-02      230.0796079 
 6.312685641e-02      229.4971516 
 6.236986452e-02      228.9004937 
 6.161795984e-02      228.2911646 
 6.095900262e-02      228.9909131 
 6.020797289e-02      228.3664607 
 5.946427499e-02       227.726311 
 5.805170109e-02      227.7927024 
 5.731491952e-02      227.1210964 
 5.700453022e-02      226.8307207 
 5.658621740e-02      226.4320962 
 5.517245690e-02      226.4688007 
 5.445181356e-02      225.7440592 
 5.374011537e-02              225 
 5.274132864e-02      224.5504581 
 5.162363800e-02      224.2151754 
 5.093132631e-02      223.4088597 
 5.024937811e-02      222.5804908 
 4.884277891e-02      222.5036546 
 4.846338680e-02      222.0270523 
 4.816637832e-02      221.6335393 
 4.750789408e-02      220.7321067 
 4.686149806e-02      219.8055711 
 4.545327271e-02       219.644175 
 4.482186966e-02      218.6598083 
 4.420407221e-02      217.6476206 
 4.360045871e-02      216.6070748 
 4.331298877e-02      216.0920442 
 4.277782555e-02      215.7616684 
 4.161730409e-02       215.217593 
 4.104875150e-02      214.0771953 
 4.049691346e-02      212.9052429 
 4.049691346e-02      212.9052429 
 3.996248241e-02      211.7014297 
 3.944616585e-02      210.4655449 
 3.944054397e-02      210.4516582 
 3.894868419e-02       209.197486 
 3.847076812e-02       207.897271 
 3.847066862e-02      207.8969911 
 3.799427189e-02      206.5792905 
 3.730904940e-02      205.3946245 
 3.713779611e-02      205.5201144 
 3.670683178e-02       204.119636 
 3.676955262e-02      202.3801351 
 3.676955262e-02      202.3801351 
 3.640054945e-02      200.9245017 
 3.605551275e-02      199.4400348 
 3.605551275e-02      199.4400348 
 3.573513677e-02      197.9279198 
 3.573513677e-02      197.9279198 
 3.544009029e-02      196.3895403 
 3.517101079e-02        194.82648 
 3.517101079e-02        194.82648 
 3.529601184e-02      193.1001879 
 3.590264614e-02      192.8750016 
 3.569313660e-02      191.3099325 
 3.551678802e-02      189.7859956 
 3.551056181e-02      189.7275786 
 3.614444519e-02      187.9514444 
 3.634556369e-02      187.9071627 
 3.622154055e-02      186.3401917 
 3.622154055e-02      186.3401917 
 3.712142239e-02      184.6354634 
 3.712142239e-02      184.6354634 
 3.705401463e-02      183.0940581 
 3.805259518e-02      183.0127875 
 3.801315562e-02      181.5074358 
 3.801315562e-02      181.5074358 
 3.900000000e-02              180 
 3.900000000e-02              180 
 4.001249805e-02      178.5679038 
 4.001249805e-02      178.5679038 
 4.001249805e-02      178.5679038 
 4.104875150e-02      177.2072976 
 4.104875150e-02      177.2072976 
 4.204759208e-02       177.273689 
 4.210700654e-02      175.9143832 
 4.211698043e-02      175.9153524 
 4.310452412e-02      176.0090869 
 4.310452412e-02      176.0090869 
 4.418144407e-02      174.8055711 
 4.418144407e-02      174.8055711 
 4.517638427e-02      174.9202745 
 4.517742799e-02      174.9203921 
 4.517742799e-02      174.9203921 
 4.627094121e-02      173.7965521 
 4.627094121e-02      173.7965521 
 4.726520919e-02      173.9275436 
 4.726520919e-02      173.9275436 
 4.736714476e-02      173.9406607 
 4.825971405e-02      174.0531369 
 4.825971405e-02      174.0531369 
 4.925444142e-02       174.173658 
 4.925647732e-02      174.1504956 
 4.936598019e-02      173.0189426 
 5.035871325e-02      173.1572266 
 5.035871325e-02      173.1572266 
 5.035871325e-02      173.1572266 
 5.135172831e-02      173.2901632 
 5.135172831e-02      173.2901632 
 5.135172831e-02      173.2901632 
 5.139353622e-02      173.2956466 
 5.234500931e-02      173.4180553 
 5.234500931e-02      173.4180553 
 5.234500931e-02      173.4180553 
 5.258345313e-02      173.4480328 
 5.333854141e-02      173.5411836 
 5.333854141e-02      173.5411836 
 5.333854141e-02      173.5411836 
 5.433231083e-02      173.6598083 
 5.475058750e-02      173.7084416 
 5.532630477e-02      173.7741709 
 5.543143137e-02      173.7860249 
 5.632051136e-02      173.8844964 
 5.632051136e-02      173.8844964 
 5.632051136e-02      173.8844964 
 5.641469236e-02      173.0486217 
 5.643580424e-02      172.8749837 
 5.626248279e-02        172.85292 
 5.555298230e-02      171.9090323 
 5.402907549e-02      171.4849946 
 5.276171772e-02      171.2788856 
 5.139906547e-02      171.0458025 
 5.022267876e-02      170.8342782 
 4.912479654e-02       170.552534 
 4.799293146e-02      170.4955562 
 4.657421916e-02      171.3407219 
 4.457637682e-02      171.2868735 
 4.233730440e-02       171.852671 
 4.082953245e-02      172.4929307 
 3.843244471e-02      172.5247208 
 3.598680755e-02      172.1517517 
 3.338416796e-02      171.3912912 
 3.034406326e-02      169.7801693 
 2.822526094e-02      166.3842461 
 2.612779152e-02      162.2154488 
 2.472128179e-02      158.1961576 
 2.350448238e-02      151.9101715 
 2.262662028e-02      145.2949895 
 2.183227057e-02      139.8095181 
 2.091378421e-02      132.6612565 
 2.190910639e-02      125.8942365 
 2.240353803e-02      120.2022095 
 2.370715385e-02      114.4699653 
 2.396126055e-02      108.1341452 
 2.469756765e-02      104.3640268 
 2.635933005e-02      100.8270033 
 2.743164320e-02      98.09840585 
 2.847527033e-02      95.67244762 
 3.040704629e-02      93.39825246 
 3.168572799e-02      90.69296716 
 3.353132944e-02      87.80087472 
 3.495666335e-02      86.15537855 
 3.667636835e-02      84.47186898 
 3.783859702e-02      82.20454979 
 3.872024717e-02      81.15277425 
 3.964953596e-02      79.17101269 
 3.991394662e-02       77.8202096 
 4.039644304e-02      77.65791811 
 4.097729502e-02      77.59385207 
P1 
 3.228002478e-02      253.8107937 
 3.255593118e-02      252.1116158 
 3.157161200e-02      248.3250141 
 3.096184699e-02      247.1963832 
 3.046309242e-02      246.8014095 
 2.954657341e-02       246.037511 
 2.863564213e-02      245.2248594 
 2.863564213e-02      245.2248594 
 2.863564213e-02      245.2248594 
 2.773084925e-02      244.3589942 
 2.773084925e-02      244.3589942 
 2.758670006e-02      244.9899711 
 2.731300057e-02      246.2505055 
 2.731300057e-02      246.2505055 
 2.640075756e-02      245.3764352 
 2.640075756e-02      245.3764352 
 2.640075756e-02      245.3764352 
 2.549509757e-02      244.4400348 
 2.549509757e-02      244.4400348 
 2.486972961e-02      244.0318091 
 2.416609195e-02      245.5560452 
 2.416609195e-02      245.5560452 
 2.325940670e-02      244.5366549 
 2.325940670e-02      244.5366549 
 2.325940670e-02      244.5366549 
 2.236067977e-02      243.4349488 
 2.236067977e-02      243.4349488 
 2.148686840e-02      242.2638531 
 2.147091055e-02      242.2414594 
 2.147091055e-02      242.2414594 
 2.059126028e-02      240.9453959 
 2.059126028e-02      240.9453959 
 1.972308292e-02      239.5344551 
 1.972308292e-02      239.5344551 
 1.967585144e-02      239.4535171 
 1.886796226e-02      237.9946168 
 1.886796226e-02      237.9946168 
 1.802775638e-02      236.3099325 
 1.802775638e-02      236.3099325 
 1.720465053e-02      234.4623222 
 1.720465053e-02      234.4623222 
 1.640121947e-02       232.431408 
 1.640121947e-02       232.431408 
 1.562049935e-02      230.1944289 
 1.562049935e-02      230.1944289 
 1.486606875e-02       227.726311 
 1.486606875e-02       227.726311 
 1.486606875e-02       222.273689 
 1.486606875e-02       222.273689 
 1.421267040e-02      219.2894069 
 1.421267040e-02      219.2894069 
 1.421267040e-02      219.2894069 
 1.360147051e-02      216.0273734 
 1.360147051e-02      216.0273734 
 1.303840481e-02      212.4711923 
 1.303840481e-02      212.4711923 
 1.303840481e-02      212.4711923 
 1.252996409e-02      208.6104597 
 1.252996409e-02      208.6104597 
 1.252996409e-02      208.6104597 
 1.208304597e-02      204.4439548 
 1.208304597e-02      204.4439548 
 1.208304597e-02      204.4439548 
 1.170469991e-02      199.9831065 
 1.264911064e-02      198.4349488 
 1.264911064e-02      198.4349488 
 1.236931688e-02      194.0362435 
 1.236931688e-02      194.0362435 
 1.236931688e-02      194.0362435 
 1.219175991e-02       190.175464 
 1.216552506e-02      189.4623222 
 1.216552506e-02      189.4623222 
 1.216552506e-02      189.4623222 
 1.204159458e-02      184.7636417 
 1.272366248e-02      184.5077374 
 1.303840481e-02      184.3987054 
 1.303840481e-02      184.3987054 
 1.300000000e-02              180 
 1.300000000e-02              180 
 1.300000000e-02              180 
 1.300000000e-02              180 
 1.303840481e-02      175.6012946 
 1.403566885e-02      175.9143832 
 1.403566885e-02      175.9143832 
 1.403566885e-02      175.9143832 
 1.403566885e-02      175.9143832 
 1.414213562e-02      171.8698976 
 1.414213562e-02      171.8698976 
 1.513274595e-02      172.4053566 
 1.513274595e-02      172.4053566 
 1.513274595e-02      172.4053566 
 1.513274595e-02      172.4053566 
 1.529705854e-02      168.6900675 
 1.529705854e-02      168.6900675 
 1.627882060e-02      169.3803447 
 1.627882060e-02      169.3803447 
 1.627882060e-02      169.3803447 
 1.627882060e-02      169.3803447 
 1.627882060e-02      169.3803447 
 1.726267650e-02      169.9920202 
 1.726267650e-02      169.9920202 
 1.746424920e-02      166.7594801 
 1.746424920e-02      166.7594801 
 1.746424920e-02      166.7594801 
 1.746424920e-02      166.7594801 
 1.843908891e-02      167.4711923 
 1.843908891e-02      167.4711923 
 1.843908891e-02      167.4711923 
 1.843908891e-02      167.4711923 
 1.843908891e-02      167.4711923 
 1.843908891e-02      167.4711923 
 1.864428273e-02      167.6112836 
 1.941648784e-02       168.111342 
 1.941648784e-02       168.111342 
 1.941648784e-02       168.111342 
 1.941648784e-02       168.111342 
 1.941648784e-02       168.111342 
 1.941648784e-02       168.111342 
 1.941648784e-02       168.111342 
 2.039607805e-02      168.6900675 
 2.039607805e-02      168.6900675 
 2.039607805e-02      168.6900675 
 2.039607805e-02      168.6900675 
 2.039607805e-02      168.6900675 
 2.039607805e-02      168.6900675 
 2.039607805e-02      168.6900675 
 2.039607805e-02      168.6900675 
 2.039607805e-02      168.6900675 
 2.039607805e-02      168.6900675 
 2.039607805e-02      168.6900675 
 2.040865470e-02       168.697129 
 2.137755833e-02      169.2157021 
 2.137755833e-02      169.2157021 
 2.137755833e-02      169.2157021 
 2.137755833e-02      169.2157021 
 2.153425008e-02      167.4893349 
 2.256102835e-02      167.1957339 
 2.256102835e-02      167.1957339 
 2.353720459e-02      167.7352263 
 2.353720459e-02      167.7352263 
 2.376972865e-02       165.379126 
 2.376972865e-02       165.379126 
 2.376972865e-02       165.379126 
 2.376972865e-02       165.379126 
 2.376972865e-02       165.379126 
 2.376972865e-02       165.379126 
 2.377723938e-02      165.3099085 
 2.333341833e-02      162.5424625 
 2.308679276e-02      162.3498758 
 2.308679276e-02      162.3498758 
 2.263175403e-02      161.9829537 
 2.213594362e-02      161.5650512 
 2.213594362e-02      161.5650512 
 2.123513856e-02      160.7529338 
 2.113330119e-02      160.3909835 
 2.061552813e-02      157.1663458 
 1.984044256e-02      156.2205684 
 1.910748431e-02      155.2484625 
 1.918218712e-02      152.4043658 
 1.837665855e-02      150.5386941 
 1.876395306e-02      147.7959058 
 1.889211310e-02      144.5941787 
 1.870941547e-02      143.2961383 
 1.924176778e-02      140.9125368 
 1.954982010e-02      138.3201482 
 1.963524063e-02      135.6992247 
 2.006853363e-02      134.2355282 
 2.059796519e-02      132.8185474 
 2.123448574e-02      131.1062841 
 2.178256708e-02      129.9740203 
 2.215436580e-02       126.664137 
 2.223559329e-02      125.9466529 
 2.302172661e-02       124.380367 
 2.316714345e-02      124.3119986 
 2.394401120e-02      123.2332252 
 2.478006308e-02      122.0771099 
 2.509697900e-02      121.8923627 
 2.571544193e-02      121.1830925 
 2.615401204e-02      119.8053952 
 2.665210370e-02      119.1938773 
 2.729468813e-02      118.4429286 
 2.729578362e-02      118.4416831 
 2.789774168e-02      117.7741526 
 2.812961508e-02      117.2842779 
 2.817800561e-02      117.4744316 
 2.817800561e-02      117.4744316 
K1 
 1.080268411e-01      245.9642748 
 1.048370965e-01      246.3914775 
 1.003194896e-01      246.5014343 
 9.701730732e-02      246.5419232 
 9.402127419e-02      246.1612598 
 9.152291260e-02      246.1545883 
 8.996110271e-02      245.7141748 
 8.863972022e-02       246.037511 
 8.732390203e-02      245.6532256 
 8.587599028e-02       245.269618 
 8.458132182e-02      245.5560452 
 8.417244205e-02      246.1757394 
 8.377350416e-02      246.8014095 
 8.309175191e-02      246.5997851 
 8.177929444e-02       246.506105 
 8.062257748e-02      246.6147789 
 7.970570870e-02      246.3294615 
 7.879086241e-02       246.037511 
 7.787810989e-02      245.7387091 
 7.696752562e-02      245.4328287 
 7.600106362e-02      245.0993099 
 7.407740380e-02      245.2545211 
 7.291776190e-02      244.8406981 
 7.201388755e-02      244.5024485 
 7.111258679e-02      244.1556124 
 6.991864263e-02      243.6807444 
 6.842514158e-02      243.0604719 
 6.753517602e-02      242.6761087 
 6.664833081e-02      242.2814984 
 6.488451279e-02      241.4600148 
 6.400781202e-02      241.0323394 
 6.313477647e-02      240.5928109 
 6.140032573e-02      239.6763931 
 6.053924347e-02       239.198554 
 5.952154398e-02      238.6127403 
 5.798275606e-02      237.6803835 
 5.713003046e-02      237.1377048 
 5.547071299e-02       236.023456 
 5.475736971e-02      235.2661115 
 5.358552983e-02      233.3652236 
 5.277436070e-02      232.6735867 
 5.122499390e-02      231.3401917 
 5.023141082e-02      230.4276865 
 4.891829923e-02      229.1446237 
 4.742994744e-02      227.5707552 
 4.669047012e-02      226.7357046 
 4.596737974e-02       224.118596 
 4.527692569e-02      223.2100894 
 4.393176527e-02       221.308614 
 4.327817002e-02      220.3141002 
 4.261238201e-02      219.2472695 
 4.174163545e-02      216.7927583 
 4.161730409e-02       215.217593 
 4.104875150e-02      214.0771953 
 3.996248241e-02      211.7014297 
 3.944616585e-02      210.4655449 
 3.977720740e-02      208.5327155 
 3.935733731e-02      207.2161116 
 3.891015292e-02       205.906508 
 3.823753013e-02      203.7472105 
 3.772371585e-02      201.7846656 
 3.827531842e-02      199.8552144 
 3.794733192e-02      198.4349488 
 3.764306045e-02      196.9908233 
 3.771900767e-02      195.3739836 
 3.807886553e-02      193.6713071 
 3.786926203e-02      192.2999636 
 3.776194055e-02      191.5293277 
 3.863844097e-02      190.4300894 
 3.847076812e-02      188.9726266 
 3.832753579e-02      187.4958576 
 3.920459157e-02      185.8560136 
 3.911521443e-02      184.3987054 
 3.905124838e-02      182.9356734 
 4.001249805e-02      181.4320962 
 4.001249805e-02      181.4320962 
 4.000000000e-02              180 
 4.101219331e-02       178.602819 
 4.104875150e-02      177.2072976 
 4.207126585e-02      176.6646078 
 4.210700654e-02      175.9143832 
 4.292253983e-02      174.6527827 
 4.328581754e-02       173.412077 
 4.328972164e-02      173.3674854 
 4.440720662e-02       172.234834 
 4.447925955e-02      171.5814951 
 4.554119015e-02      171.1581854 
 4.570557953e-02       169.919402 
 4.669047012e-02      170.1341931 
 4.687216658e-02      168.9297974 
 4.785394446e-02      169.1596945 
 4.805205511e-02      167.9885216 
 4.903060269e-02      168.2317111 
 4.903525580e-02       168.205642 
 5.021951812e-02      167.3474435 
 5.021951812e-02      167.3474435 
 5.126132860e-02      167.2634624 
 5.141984053e-02      166.5042667 
 5.141984053e-02      166.5042667 
 5.239274759e-02      166.7594801 
 5.254615534e-02      166.0663651 
 5.360037313e-02      165.9637565 
 5.360037313e-02      165.9637565 
 5.457105460e-02      166.2184028 
 5.457105460e-02      166.2184028 
 5.457105460e-02      166.2184028 
 5.563274344e-02      166.0844848 
 5.578530272e-02      165.4655449 
 5.675385449e-02      165.7189043 
 5.675385449e-02      165.7189043 
 5.675385449e-02      165.7189043 
 5.772347876e-02      165.9637565 
 5.772347876e-02      165.9637565 
 5.869412236e-02      166.2005146 
 5.869412236e-02      166.2005146 
 5.869412236e-02      166.2005146 
 5.966573556e-02      166.4295656 
 5.966573556e-02      166.4295656 
 5.966573556e-02      166.4295656 
 6.063827174e-02      166.6512729 
 6.063827174e-02      166.6512729 
 6.063827174e-02      166.6512729 
 6.161168720e-02      166.8659777 
 6.161168720e-02      166.8659777 
 6.161168720e-02      166.8659777 
 6.161168720e-02      166.8659777 
 6.258594091e-02      167.0740009 
 6.258594091e-02      167.0740009 
 6.242543130e-02      167.7323924 
 6.236986452e-02      167.9694039 
 6.334824386e-02      168.1579239 
 6.334824386e-02      168.1579239 
 6.334824386e-02      168.1579239 
 6.389107051e-02       167.342475 
 6.453681120e-02      167.4711923 
 6.551826226e-02      167.6413198 
 6.671056115e-02      167.0058273 
 6.801860348e-02      166.6718671 
 6.888396040e-02      166.5689711 
 6.968885530e-02      166.3287999 
 7.009279564e-02      165.9637565 
 7.009279564e-02      165.9637565 
 7.009279564e-02      165.9637565 
 7.033328966e-02      165.2004164 
 7.034202158e-02        165.17352 
 7.057785909e-02      164.4666973 
 7.032954358e-02      163.4640512 
 6.955363051e-02      162.2935142 
 6.936047679e-02      161.3091908 
 6.855479661e-02      160.3971736 
 6.775605232e-02      159.6375577 
 6.700928114e-02      158.4708807 
 6.588839202e-02      157.8903975 
 6.413616717e-02      157.0555689 
 6.257251135e-02       155.355787 
 6.109964009e-02      153.6255727 
 5.983594081e-02      151.7483714 
 5.801686922e-02      149.2054422 
 5.708793837e-02      145.8965721 
 5.733070367e-02      143.0241018 
 5.721867150e-02      139.7243931 
 5.803589773e-02      136.9664243 
 5.947898641e-02      134.0375855 
 6.131243818e-02      131.8015285 
 6.270587437e-02       129.189592 
 6.466094528e-02      127.4281241 
 6.627664500e-02      125.0745382 
 6.817498137e-02      123.4187218 
 7.025234464e-02      121.7933887 
 7.239622966e-02      120.4288811 
 7.454174584e-02      119.0794149 
 7.613456876e-02      117.4322476 
 7.744833774e-02       116.861914 
 8.012422024e-02       115.848017 
 8.202339787e-02      115.2234451 
 8.388353870e-02      114.6590477 
 8.616817681e-02      113.7410357 
 8.808921106e-02      112.7973775 
 9.025421825e-02      112.2607036 
 9.230389301e-02      111.6834866 
 9.372806046e-02      110.7968524 
 9.512554379e-02      110.3370853 
 9.623807018e-02      109.5887778 
 9.674318506e-02       109.255135 
 9.744345369e-02      109.1715191 
 9.807274597e-02      109.0520667 
N2 
 1.798422650e-01      202.9065946 
 1.699525175e-01      203.9752763 
 1.504371770e-01      204.4807591 
 1.328035441e-01      204.2491102 
 1.186458172e-01      203.6817153 
 1.084279195e-01       203.176586 
 1.034288117e-01      202.9128873 
 1.012572342e-01      203.2680636 
 9.976328820e-02      203.3400384 
 9.808669635e-02      203.4286928 
 9.691528728e-02      203.7291321 
 9.534149149e-02       204.145542 
 9.345085922e-02      204.4553828 
 9.219544457e-02      204.3410899 
 9.077645121e-02      204.7469105 
 8.947066558e-02       205.132955 
 8.766413178e-02      205.6881434 
 8.558366716e-02      205.6152317 
 8.418994402e-02      206.0708619 
 8.224139783e-02      206.7368454 
 7.961953250e-02      206.8817325 