ASGS %StormName%                   ! 30 CHARACTER ALPHANUM RUN DESCRIPTION
%EnsembleID%                       ! 20 CHARACTER ALPANUMERIC RUN IDENTIFICATION
1                         ! NFOVER - NONFATAL ERROR OVERRIDE OPTION
1                         ! NABOUT - ABREVIATED OUTPUT OPTION PARAMETER
%NSCREEN%   ! output frequency (in time steps) to STDOUT or adcirc.log
%IHOT%                         ! IHOT - HOT START PARAMETER
2                         ! ICS - COORDINATE SYSTEM SELECTION PARAMETER
111112                    ! IM - MODEL TYPE (0 INDICATES STANDARD DEPTH INTEGRATED MODEL)
1                         ! NOLIBF - BOTTOM FRICTION TERM SELECTION PARAMETER
2                         ! NOLIFA - FINITE AMPLITUDE TERM SELECTION PARAMETER
1                         ! NOLICA - SPATIAL DERIVATIVE PORTION OF CONV. TERM SELECTION PARAMETER
1                         ! NOLICAT - TIME DERIVATIVE PORTION OF CONVECTIVE TERM SELECTION PARAMETER
4                         ! NWP - VARIABLE BOTTOM FRICTION AND LATERAL VISCOSITY OPTION PARAMETER
surface_directional_effective_roughness_length
mannings_n_at_sea_floor
surface_canopy_coefficient
primitive_weighting_in_continuity_equation
1                         ! NCOR - VARIABLE CORIOLIS IN SPACE OPTION PARAMETER
1                         ! NTIP - TIDAL POTENTIAL OPTION PARAMETER
%NWS%                      ! NWS - WIND STRESS AND BAROMETRIC PRESSURE OPTION PARAMETER
1                         ! NRAMP - RAMP FUNCTION OPTION
9.81                      ! G - ACCELERATION DUE TO GRAVITY - DETERMINES UNITS
-3                        ! TAU0 - WEIGHTING FACTOR IN GWCE
%DT%                       ! DT - TIME STEP (IN SECONDS)
0.0                       ! STATIM - STARTING TIME (IN DAYS)
0.0                       ! REFTIM - REFERENCE TIME (IN DAYS)
%WTIMINC%                 ! Wind and (if needed) RadStress Time  Increment
%RNDAY%                   ! RNDAY - TOTAL LENGTH OF SIMULATION (IN DAYS)
10.0                        ! DRAMP - DURATION OF RAMP FUNCTION (IN DAYS)
0.00 1.00 0.00            ! TIME WEIGHTING FACTORS FOR THE GWCE EQUATION
0.1 0 0 .01               ! H0 - MINIMUM CUTOFF DEPTH
-79.0 35.0                ! SLAM0,SFEA0 - CENTER OF CPP PROJECTION IN DEGREES LONG/LAT
0.003  1. 10. 0.33333     ! FFACTOR - BOTTOM FRICTION COEFFICIENT
2.0                       ! ESL - LATERAL EDDY VISCOSITY COEFFICIENT; IGNORED IF NWP =1
0.0                       ! CORI - CORIOLIS PARAMETER - IGNORED IF NCOR = 1
7                         ! NTIF - TOTAL NUMBER OF TIDAL POTENTIAL CONSTITUENTS
M2
 0.242334   0.14051890E-03    0.69300  %M2NF%  %M2EQARG%
S2
 0.112841   0.14544410E-03    0.69300  %S2NF%  %S2EQARG%
N2
 0.046398   0.13787970E-03    0.69300  %N2NF%  %N2EQARG%
K2
 0.030704   0.14584232E-03    0.69300  %K2NF%  %K2EQARG%
K1
 0.141565   0.72921160E-04    0.73600  %K1NF%  %K1EQARG%
O1
 0.100514   0.67597742E-04    0.69500  %O1NF%  %O1EQARG%
Q1
 0.019256   0.64958540E-04    0.69500  %Q1NF%  %Q1EQARG%
7                !  NBFR - TOTAL NUMBER OF FORCING FREQUENCIES ON OPEN BOUNDARIES
M2
  0.14051890E-03  %M2NF%  %M2EQARG% 
S2
  0.14544410E-03  %S2NF%  %S2EQARG%
N2
  0.13787970E-03  %N2NF%  %N2EQARG%
K2
  0.14584232E-03  %K2NF%  %K2EQARG%
K1
  0.72921160E-04  %K1NF%  %K1EQARG%
O1
  0.67597742E-04  %O1NF%  %O1EQARG%
Q1
  0.64958540E-04  %Q1NF%  %Q1EQARG%
M2
     0.4614   220.79       1  2
     0.4614   220.79       2  2
     0.4614   220.79       3  2
     0.4614   220.79       4  2
     0.4614   220.79       5  0
     0.4348   219.93       6  0
     0.4216   219.45       7  0
     0.4079   219.00       8  0
     0.3808   217.99       9  0
     0.3552   216.91      10  0
     0.3410   216.42      11  0
     0.3276   215.91      12  0
     0.3142   215.57      13  0
     0.3007   215.32      14  0
     0.2874   215.08      15  0
     0.2757   215.13      16  0
     0.2641   215.19      17  0
     0.2434   215.60      18  0
     0.2279   216.14      19  0
     0.2148   216.85      20  0
     0.2024   217.57      21  0
     0.1906   218.39      22  0
     0.1811   219.16      23  0
     0.1720   220.06      24  0
     0.1632   221.07      25  0
     0.1563   222.20      26  0
     0.1483   223.58      27  0
     0.1398   225.16      28  0
     0.1313   227.04      29  0
     0.1226   229.24      30  0
     0.1133   231.93      31  0
     0.1039   235.27      32  0
     0.0946   239.39      33  0
     0.0863   244.42      34  0
     0.0790   250.51      35  0
     0.0728   257.80      36  0
     0.0684   266.15      37  0
     0.0653   279.62      38  0
     0.0667   294.58      39  0
     0.0747   311.16      40  0
     0.0865   322.72      41  0
     0.1001   330.50      42  0
     0.1164   336.48      43  0
     0.1328   340.64      44  0
     0.1474   343.32      45  0
     0.1616   345.24      46  0
     0.1783   347.16      47  0
     0.1948   348.61      48  0
     0.2111   349.74      49  0
     0.2266   350.58      50  0
     0.2410   351.16      51  0
     0.2548   351.62      52  0
     0.2679   352.06      53  0
     0.2805   352.30      54  0
     0.2936   352.56      55  0
     0.3061   352.63      56  0
     0.3170   352.72      57  0
     0.3275   352.71      58  0
     0.3363   352.57      59  0
     0.3448   352.43      60  0
     0.3530   352.19      61  0
     0.3606   351.90      62  0
     0.3686   351.41      63  0
     0.3763   350.93      64  0
     0.3829   350.41      65  0
     0.3893   349.78      66  0
     0.3925   349.43      67  0
     0.3959   349.04      68  0
     0.3993   348.61      69  0
     0.4027   348.25      70  0
     0.4064   347.76      71  0
     0.4100   347.20      72  0
     0.4137   346.59      73  0
     0.4172   345.97      74  0
     0.4206   345.27      75  0
     0.4239   344.52      76  0
     0.4273   343.72      77  0
     0.4299   343.21      78  0
     0.4442   344.43      79  0
     0.4577   345.90      80  0
     0.4760   347.70      81  0
     0.4810   347.71      82  0
     0.4855   347.59      83  0
     0.4917   347.43      84  0
     0.4979   347.28      85  0
     0.5018   347.10      86  0
     0.5036   346.86      87  0
     0.5047   346.72      88  0
     0.5058   346.59      89  0
     0.5069   346.45      90  0
     0.5080   346.31      91  0
     0.5076   346.17      92  0
     0.5067   346.03      93  0
     0.5058   345.89      94  0
     0.5049   345.75      95  0
     0.5040   345.61      96  0
     0.5031   345.47      97  0
     0.5023   345.33      98  0
     0.5023   345.33      99  2
     0.5023   345.33     100  2
     0.5023   345.33     101  2
     0.5023   345.33     102  2
     0.5023   345.33     103  2
S2
     0.1627   267.41       1  2
     0.1627   267.41       2  2
     0.1627   267.41       3  2
     0.1627   267.41       4  2
     0.1627   267.41       5  0
     0.1549   265.29       6  0
     0.1511   264.15       7  0
     0.1459   262.26       8  0
     0.1361   258.06       9  0
     0.1276   253.60      10  0
     0.1226   251.53      11  0
     0.1180   249.41      12  0
     0.1134   248.06      13  0
     0.1087   247.16      14  0
     0.1040   246.27      15  0
     0.1001   246.28      16  0
     0.0963   246.29      17  0
     0.0897   246.83      18  0
     0.0848   247.49      19  0
     0.0807   248.16      20  0
     0.0768   248.82      21  0
     0.0730   249.41      22  0
     0.0700   249.82      23  0
     0.0671   250.00      24  0
     0.0642   250.16      25  0
     0.0620   250.54      26  0
     0.0595   251.07      27  0
     0.0568   251.80      28  0
     0.0542   252.79      29  0
     0.0515   253.95      30  0
     0.0486   255.37      31  0
     0.0455   257.10      32  0
     0.0425   259.16      33  0
     0.0396   261.63      34  0
     0.0369   264.56      35  0
     0.0344   268.03      36  0
     0.0321   272.04      37  0
     0.0293   278.94      38  0
     0.0270   287.95      39  0
     0.0252   301.34      40  0
     0.0250   314.59      41  0
     0.0260   326.49      42  0
     0.0283   337.56      43  0
     0.0314   346.11      44  0
     0.0344   352.00      45  0
     0.0376   356.51      46  0
     0.0417     0.89      47  0
     0.0458     4.40      48  0
     0.0499     7.24      49  0
     0.0540     9.37      50  0
     0.0578    11.04      51  0
     0.0614    12.41      52  0
     0.0649    13.62      53  0
     0.0683    14.62      54  0
     0.0718    15.49      55  0
     0.0752    16.31      56  0
     0.0781    16.83      57  0
     0.0809    17.32      58  0
     0.0833    17.60      59  0
     0.0855    17.86      60  0
     0.0876    17.92      61  0
     0.0895    17.93      62  0
     0.0915    17.86      63  0
     0.0933    17.70      64  0
     0.0948    17.42      65  0
     0.0962    17.13      66  0
     0.0969    16.93      67  0
     0.0976    16.71      68  0
     0.0983    16.50      69  0
     0.0990    16.22      70  0
     0.0998    15.91      71  0
     0.1007    15.60      72  0
     0.1014    15.28      73  0
     0.1022    14.82      74  0
     0.1029    14.40      75  0
     0.1037    13.93      76  0
     0.1046    13.42      77  0
     0.1055    13.17      78  0
     0.1110    15.12      79  0
     0.1164    17.08      80  0
     0.1237    19.40      81  0
     0.1256    19.56      82  0
     0.1272    19.60      83  0
     0.1294    19.65      84  0
     0.1317    19.70      85  0
     0.1332    19.64      86  0
     0.1342    19.45      87  0
     0.1347    19.35      88  0
     0.1353    19.24      89  0
     0.1358    19.13      90  0
     0.1364    19.03      91  0
     0.1365    18.87      92  0
     0.1364    18.68      93  0
     0.1363    18.50      94  0
     0.1363    18.32      95  0
     0.1362    18.13      96  0
     0.1362    17.95      97  0
     0.1361    17.76      98  0
     0.1361    17.76      99  2
     0.1361    17.76     100  2
     0.1361    17.76     101  2
     0.1361    17.76     102  2
     0.1361    17.76     103  2
N2
     0.1003   196.50       1  2
     0.1003   196.50       2  2
     0.1003   196.50       3  2
     0.1003   196.50       4  2
     0.1003   196.50       5  0
     0.0947   196.16       6  0
     0.0920   195.97       7  0
     0.0891   195.83       8  0
     0.0834   195.50       9  0
     0.0779   195.15      10  0
     0.0749   194.90      11  0
     0.0721   194.64      12  0
     0.0692   194.42      13  0
     0.0664   194.21      14  0
     0.0637   194.00      15  0
     0.0612   193.95      16  0
     0.0587   193.91      17  0
     0.0543   194.02      18  0
     0.0510   194.29      19  0
     0.0482   194.72      20  0
     0.0455   195.19      21  0
     0.0429   195.79      22  0
     0.0408   196.43      23  0
     0.0387   197.30      24  0
     0.0367   198.30      25  0
     0.0350   199.43      26  0
     0.0332   200.78      27  0
     0.0312   202.24      28  0
     0.0292   203.89      29  0
     0.0272   205.84      30  0
     0.0250   208.28      31  0
     0.0228   211.32      32  0
     0.0206   215.10      33  0
     0.0185   219.73      34  0
     0.0167   225.53      35  0
     0.0150   232.75      36  0
     0.0138   241.35      37  0
     0.0128   256.03      38  0
     0.0129   273.36      39  0
     0.0146   292.76      40  0
     0.0172   305.77      41  0
     0.0203   314.26      42  0
     0.0241   320.58      43  0
     0.0279   324.72      44  0
     0.0312   327.34      45  0
     0.0344   329.25      46  0
     0.0383   331.07      47  0
     0.0420   332.43      48  0
     0.0458   333.55      49  0
     0.0493   334.29      50  0
     0.0527   334.85      51  0
     0.0559   335.22      52  0
     0.0589   335.56      53  0
     0.0618   335.80      54  0
     0.0649   335.93      55  0
     0.0678   336.02      56  0
     0.0704   336.02      57  0
     0.0729   335.91      58  0
     0.0750   335.77      59  0
     0.0771   335.56      60  0
     0.0791   335.27      61  0
     0.0809   334.90      62  0
     0.0829   334.38      63  0
     0.0847   333.82      64  0
     0.0863   333.21      65  0
     0.0878   332.49      66  0
     0.0886   332.08      67  0
     0.0893   331.65      68  0
     0.0901   331.21      69  0
     0.0909   330.78      70  0
     0.0918   330.26      71  0
     0.0926   329.70      72  0
     0.0934   329.08      73  0
     0.0941   328.38      74  0
     0.0949   327.66      75  0
     0.0956   326.91      76  0
     0.0963   326.09      77  0
     0.0969   325.53      78  0
     0.1006   326.08      79  0
     0.1041   326.92      80  0
     0.1087   327.95      81  0
     0.1100   327.80      82  0
     0.1110   327.57      83  0
     0.1125   327.26      84  0
     0.1140   326.96      85  0
     0.1151   326.62      86  0
     0.1157   326.24      87  0
     0.1160   326.02      88  0
     0.1164   325.79      89  0
     0.1168   325.57      90  0
     0.1171   325.35      91  0
     0.1172   325.12      92  0
     0.1172   324.88      93  0
     0.1172   324.64      94  0
     0.1172   324.40      95  0
     0.1172   324.16      96  0
     0.1172   323.92      97  0
     0.1172   323.68      98  0
     0.1172   323.68      99  2
     0.1172   323.68     100  2
     0.1172   323.68     101  2
     0.1172   323.68     102  2
     0.1172   323.68     103  2


  0.117000   -158.8000
  0.115000   -159.4000
  0.113000   -159.3000
  0.105000   -159.3000
  0.100000   -159.1000
  0.093000   -159.1000
  0.090000   -159.3000
  0.087000   -159.4000
  0.082000   -159.6000
  0.077000   -159.8000
  0.074000   -159.9000
  0.072000   -160.0000
  0.070000   -160.0000
  0.067000   -160.1000
  0.065000   -160.0000
  0.063000   -160.0000
  0.061000   -159.8000
  0.057000   -159.4000
  0.053000   -158.9000
  0.051000   -158.3000
  0.048000   -157.7000
  0.045000   -157.1000
  0.043000   -156.5000
  0.041000   -155.7000
  0.038000   -154.7000
  0.037000   -153.7000
  0.035000   -152.4000
  0.033000   -150.9000
  0.031000   -149.1000
  0.029000   -147.0000
  0.027000   -144.4000
  0.024000   -141.2000
  0.022000   -137.3000
  0.021000   -132.7000
  0.019000   -127.1000
  0.017000   -120.7000
  0.016000   -113.3000
  0.015000   -100.8000
  0.015000    -86.5000
  0.016000    -69.8000
  0.019000    -57.1000
  0.022000    -48.7000
  0.025000    -42.3000
  0.029000    -37.9000
  0.032000    -35.0000
  0.035000    -32.9000
  0.039000    -31.0000
  0.043000    -29.5000
  0.047000    -28.4000
  0.050000    -27.5000
  0.053000    -27.0000
  0.057000    -26.5000
  0.060000    -26.1000
  0.062000    -25.9000
  0.065000    -25.7000
  0.068000    -25.7000
  0.071000    -25.7000
  0.073000    -25.7000
  0.075000    -25.9000
  0.077000    -26.1000
  0.079000    -26.4000
  0.081000    -26.7000
  0.083000    -27.2000
  0.085000    -27.8000
  0.086000    -28.4000
  0.087000    -29.1000
  0.088000    -29.5000
  0.089000    -29.9000
  0.089000    -30.3000
  0.090000    -30.8000
  0.091000    -31.4000
  0.091000    -32.0000
  0.092000    -32.6000
  0.093000    -33.4000
  0.093000    -34.2000
  0.094000    -35.1000
  0.094000    -36.0000
  0.094000    -36.7000
  0.095000    -37.7000
  0.099000    -38.5000
  0.111000    -35.4000
  0.115000    -31.9000
  0.116000    -32.0000
  0.116000    -32.7000
  0.116000    -33.4000
  0.117000    -33.8000
  0.118000    -34.3000
  0.118000    -34.6000
  0.118000    -35.0000
  0.118000    -35.3000
  0.118000    -35.7000
  0.118000    -36.0000
  0.118000    -36.4000
  0.118000    -36.7000
  0.118000    -37.1000
  0.117000    -37.5000
  0.117000    -37.9000
  0.116000    -38.3000
  0.116000    -38.8000
  0.115000    -39.3000
  0.114000    -39.9000
  0.113000    -40.2000
  0.113000    -40.4000
K2
  0.066000   -107.2000
  0.065000   -107.5000
  0.063000   -108.0000
  0.053000   -110.5000
  0.048000   -111.3000
  0.042000   -112.6000
  0.040000   -113.6000
  0.037000   -114.6000
  0.034000   -116.3000
  0.031000   -117.4000
  0.030000   -118.0000
  0.028000   -118.2000
  0.027000   -118.4000
  0.026000   -118.5000
  0.025000   -118.4000
  0.024000   -118.2000
  0.023000   -117.9000
  0.021000   -116.9000
  0.019000   -116.1000
  0.018000   -115.2000
  0.017000   -114.2000
  0.016000   -113.3000
  0.015000   -112.7000
  0.014000   -112.1000
  0.013000   -111.9000
  0.013000   -111.3000
  0.012000   -110.3000
  0.012000   -109.1000
  0.011000   -107.6000
  0.010000   -105.9000
  0.010000   -103.9000
  0.009000   -101.6000
  0.008000    -98.8000
  0.008000    -95.3000
  0.007000    -91.0000
  0.007000    -86.1000
  0.006000    -80.3000
  0.006000    -69.9000
  0.006000    -57.3000
  0.006000    -41.5000
  0.006000    -27.5000
  0.007000    -17.1000
  0.007000     -8.4000
  0.008000     -2.1000
  0.009000      2.1000
  0.010000      5.4000
  0.011000      8.6000
  0.012000     11.1000
  0.013000     13.2000
  0.014000     14.9000
  0.015000     16.1000
  0.016000     17.3000
  0.017000     18.3000
  0.017000     19.2000
  0.018000     19.8000
  0.019000     20.4000
  0.019000     20.9000
  0.020000     21.2000
  0.021000     21.3000
  0.021000     21.3000
  0.021000     21.3000
  0.022000     21.2000
  0.022000     21.0000
  0.022000     20.8000
  0.023000     20.5000
  0.023000     20.2000
  0.023000     20.0000
  0.023000     19.9000
  0.024000     19.6000
  0.024000     19.4000
  0.024000     19.2000
  0.024000     18.9000
  0.024000     18.6000
  0.025000     18.2000
  0.025000     17.7000
  0.025000     17.3000
  0.025000     16.8000
  0.025000     16.5000
  0.026000     16.2000
  0.027000     18.1000
  0.033000     34.2000
  0.037000     38.1000
  0.037000     37.7000
  0.038000     36.8000
  0.039000     36.2000
  0.040000     36.2000
  0.040000     36.2000
  0.040000     36.1000
  0.041000     35.9000
  0.041000     35.8000
  0.041000     35.6000
  0.041000     35.5000
  0.042000     35.4000
  0.042000     35.3000
  0.042000     35.2000
  0.042000     35.0000
  0.042000     34.8000
  0.042000     34.6000
  0.042000     34.3000
  0.042000     33.9000
  0.042000     33.5000
  0.042000     33.2000
  0.042000     33.1000
K1
  0.120000   -118.0000
  0.120000   -118.1000
  0.118000   -118.2000
  0.108000   -118.6000
  0.103000   -118.8000
  0.098000   -118.9000
  0.095000   -119.1000
  0.093000   -119.2000
  0.090000   -119.5000
  0.089000   -119.7000
  0.088000   -119.8000
  0.088000   -119.8000
  0.087000   -119.9000
  0.087000   -120.0000
  0.087000   -120.0000
  0.086000   -120.1000
  0.086000   -120.2000
  0.085000   -120.5000
  0.084000   -120.8000
  0.083000   -121.0000
  0.083000   -121.3000
  0.082000   -121.7000
  0.081000   -122.1000
  0.080000   -122.7000
  0.079000   -123.4000
  0.078000   -124.1000
  0.077000   -124.8000
  0.077000   -125.5000
  0.076000   -126.2000
  0.075000   -127.0000
  0.075000   -127.8000
  0.074000   -128.7000
  0.073000   -129.6000
  0.072000   -130.5000
  0.072000   -131.4000
  0.071000   -132.2000
  0.070000   -133.1000
  0.069000   -134.3000
  0.067000   -135.8000
  0.066000   -137.7000
  0.064000   -139.6000
  0.062000   -141.5000
  0.061000   -143.7000
  0.059000   -146.0000
  0.058000   -148.1000
  0.057000   -150.3000
  0.056000   -153.0000
  0.055000   -155.7000
  0.054000   -158.6000
  0.053000   -161.5000
  0.053000   -164.3000
  0.052000   -167.1000
  0.052000   -169.8000
  0.052000   -172.4000
  0.052000   -175.4000
  0.053000   -178.1000
  0.053000    179.7000
  0.054000    177.6000
  0.055000    175.9000
  0.056000    174.3000
  0.057000    172.8000
  0.057000    171.4000
  0.058000    170.0000
  0.059000    168.8000
  0.060000    168.0000
  0.061000    167.3000
  0.061000    167.0000
  0.061000    166.8000
  0.062000    166.6000
  0.062000    166.5000
  0.062000    166.4000
  0.063000    166.4000
  0.063000    166.5000
  0.064000    166.5000
  0.064000    166.6000
  0.065000    166.5000
  0.065000    166.0000
  0.065000    165.3000
  0.067000    163.0000
  0.073000    161.3000
  0.062000    165.5000
  0.040000    165.1000
  0.038000    155.3000
  0.036000    144.2000
  0.036000    133.7000
  0.037000    123.2000
  0.039000    113.7000
  0.039000    108.4000
  0.039000    103.0000
  0.039000     97.7000
  0.039000     92.5000
  0.040000     87.5000
  0.042000     82.5000
  0.044000     77.6000
  0.046000     72.7000
  0.048000     67.6000
  0.050000     62.5000
  0.052000     57.5000
  0.055000     52.6000
  0.058000     47.8000
  0.062000     43.3000
  0.066000     40.7000
  0.068000     39.7000
O1
  0.091000   -125.4000
  0.091000   -125.5000
  0.090000   -125.8000
  0.086000   -127.1000
  0.083000   -127.8000
  0.080000   -128.5000
  0.079000   -128.9000
  0.078000   -129.4000
  0.076000   -130.1000
  0.075000   -130.5000
  0.074000   -130.8000
  0.074000   -130.9000
  0.073000   -131.1000
  0.072000   -131.2000
  0.072000   -131.3000
  0.072000   -131.4000
  0.071000   -131.5000
  0.070000   -131.6000
  0.069000   -131.8000
  0.069000   -132.0000
  0.068000   -132.2000
  0.067000   -132.4000
  0.067000   -132.7000
  0.066000   -133.0000
  0.066000   -133.4000
  0.065000   -133.7000
  0.065000   -134.1000
  0.064000   -134.5000
  0.064000   -134.8000
  0.063000   -135.2000
  0.063000   -135.6000
  0.062000   -136.0000
  0.062000   -136.5000
  0.061000   -136.9000
  0.061000   -137.4000
  0.060000   -137.9000
  0.060000   -138.4000
  0.059000   -139.2000
  0.058000   -140.1000
  0.057000   -141.3000
  0.056000   -142.4000
  0.055000   -143.5000
  0.054000   -144.8000
  0.053000   -146.1000
  0.052000   -147.4000
  0.051000   -148.7000
  0.050000   -150.2000
  0.049000   -151.9000
  0.048000   -153.6000
  0.047000   -155.4000
  0.047000   -157.2000
  0.046000   -159.0000
  0.045000   -160.8000
  0.045000   -162.6000
  0.045000   -164.6000
  0.044000   -166.6000
  0.044000   -168.4000
  0.044000   -170.2000
  0.044000   -171.8000
  0.044000   -173.3000
  0.045000   -174.8000
  0.045000   -176.3000
  0.045000   -177.8000
  0.046000   -179.2000
  0.047000    179.8000
  0.047000    178.8000
  0.048000    178.4000
  0.048000    178.0000
  0.048000    177.6000
  0.049000    177.2000
  0.049000    176.8000
  0.050000    176.5000
  0.050000    176.1000
  0.051000    175.8000
  0.051000    175.4000
  0.052000    174.9000
  0.052000    174.5000
  0.051000    174.1000
  0.051000    171.5000
  0.052000    166.4000
  0.040000    173.1000
  0.028000   -166.3000
  0.023000   -164.9000
  0.018000   -162.4000
  0.013000   -156.7000
  0.008000   -151.5000
  0.004000   -120.8000
  0.004000    -84.1000
  0.006000    -61.8000
  0.008000    -50.7000
  0.010000    -44.0000
  0.012000    -38.5000
  0.014000    -32.6000
  0.017000    -28.0000
  0.020000    -26.3000
  0.023000    -26.4000
  0.027000    -26.8000
  0.030000    -27.5000
  0.033000    -28.4000
  0.037000    -29.3000
  0.041000    -29.7000
  0.045000    -29.4000
  0.046000    -29.3000
P1
  0.032000   -111.0000
  0.033000   -111.9000
  0.032000   -112.6000
  0.032000   -115.3000
  0.031000   -116.3000
  0.030000   -117.5000
  0.030000   -118.3000
  0.029000   -119.0000
  0.029000   -120.0000
  0.028000   -120.5000
  0.028000   -120.8000
  0.028000   -121.0000
  0.028000   -121.2000
  0.028000   -121.4000
  0.028000   -121.6000
  0.027000   -121.7000
  0.027000   -121.9000
  0.027000   -122.3000
  0.027000   -122.7000
  0.026000   -123.0000
  0.026000   -123.4000
  0.026000   -123.8000
  0.026000   -124.3000
  0.025000   -124.8000
  0.025000   -125.5000
  0.025000   -126.1000
  0.024000   -126.7000
  0.024000   -127.5000
  0.024000   -128.0000
  0.024000   -128.7000
  0.023000   -129.4000
  0.023000   -130.2000
  0.023000   -131.0000
  0.022000   -131.8000
  0.022000   -132.6000
  0.022000   -133.3000
  0.022000   -134.1000
  0.021000   -135.4000
  0.021000   -136.8000
  0.020000   -138.7000
  0.020000   -140.7000
  0.019000   -142.7000
  0.019000   -144.9000
  0.018000   -147.2000
  0.018000   -149.4000
  0.018000   -151.5000
  0.017000   -154.2000
  0.017000   -156.9000
  0.017000   -159.9000
  0.017000   -162.8000
  0.017000   -165.6000
  0.017000   -168.3000
  0.017000   -171.1000
  0.017000   -173.4000
  0.017000   -175.8000
  0.017000   -178.1000
  0.018000    179.6000
  0.018000    177.7000
  0.018000    176.2000
  0.018000    174.7000
  0.018000    173.3000
  0.019000    172.0000
  0.019000    170.7000
  0.019000    169.6000
  0.020000    168.7000
  0.020000    167.9000
  0.020000    167.4000
  0.020000    167.1000
  0.020000    166.8000
  0.021000    166.5000
  0.021000    166.1000
  0.021000    165.8000
  0.021000    165.5000
  0.021000    165.1000
  0.021000    164.9000
  0.021000    164.5000
  0.021000    164.1000
  0.021000    163.6000
  0.022000    162.0000
  0.022000    158.5000
  0.012000    156.7000
  0.007000    158.1000
  0.005000    151.1000
  0.005000    143.1000
  0.004000    131.6000
  0.005000    113.7000
  0.005000     99.5000
  0.005000     93.1000
  0.005000     87.4000
  0.006000     82.1000
  0.006000     77.1000
  0.006000     72.5000
  0.007000     68.3000
  0.007000     63.6000
  0.008000     59.1000
  0.009000     54.6000
  0.009000     50.3000
  0.010000     46.3000
  0.010000     42.3000
  0.011000     38.5000
  0.012000     34.8000
  0.013000     32.3000
  0.014000     31.3000
Q1
  0.016000   -147.3000
  0.016000   -147.6000
  0.015000   -147.9000
  0.015000   -149.3000
  0.015000   -149.7000
  0.015000   -150.3000
  0.015000   -150.7000
  0.014000   -151.0000
  0.014000   -151.5000
  0.014000   -151.8000
  0.014000   -152.0000
  0.014000   -152.2000
  0.014000   -152.3000
  0.014000   -152.5000
  0.013000   -152.6000
  0.013000   -152.7000
  0.013000   -152.8000
  0.013000   -152.9000
  0.013000   -153.0000
  0.013000   -153.2000
  0.013000   -153.3000
  0.013000   -153.5000
  0.012000   -153.8000
  0.012000   -154.0000
  0.012000   -154.2000
  0.012000   -154.5000
  0.012000   -154.8000
  0.012000   -155.1000
  0.012000   -155.3000
  0.012000   -155.6000
  0.012000   -155.9000
  0.012000   -156.2000
  0.012000   -156.5000
  0.012000   -156.9000
  0.012000   -157.2000
  0.011000   -157.6000
  0.011000   -157.9000
  0.011000   -158.4000
  0.011000   -159.0000
  0.011000   -159.8000
  0.011000   -160.4000
  0.011000   -161.2000
  0.011000   -162.0000
  0.010000   -162.9000
  0.010000   -163.8000
  0.010000   -164.6000
  0.010000   -165.7000
  0.010000   -166.8000
  0.010000   -167.9000
  0.009000   -169.1000
  0.009000   -170.2000
  0.009000   -171.4000
  0.009000   -172.5000
  0.009000   -173.7000
  0.009000   -175.1000
  0.009000   -176.4000
  0.009000   -177.7000
  0.009000   -179.0000
  0.009000    179.9000
  0.009000    178.7000
  0.009000    177.5000
  0.009000    176.2000
  0.009000    174.9000
  0.009000    173.6000
  0.009000    172.5000
  0.009000    171.4000
  0.009000    170.9000
  0.009000    170.4000
  0.009000    169.9000
  0.009000    169.4000
  0.009000    169.0000
  0.009000    168.5000
  0.009000    168.0000
  0.009000    167.6000
  0.009000    167.1000
  0.009000    166.6000
  0.009000    166.0000
  0.009000    165.5000
  0.009000    163.8000
  0.009000    161.5000
  0.007000    174.5000
  0.005000   -169.0000
  0.005000   -166.8000
  0.004000   -165.3000
  0.004000   -161.9000
  0.003000   -159.1000
  0.003000   -153.4000
  0.002000   -148.1000
  0.002000   -142.2000
  0.002000   -135.9000
  0.002000   -129.1000
  0.002000   -121.5000
  0.002000   -111.4000
  0.002000    -99.0000
  0.002000    -88.8000
  0.002000    -81.0000
  0.003000    -75.1000
  0.003000    -70.6000
  0.003000    -67.2000
  0.004000    -64.4000
  0.004000    -61.7000
  0.005000    -59.6000
  0.005000    -58.9000
100.0                      ! ANGINN : INNER ANGLE THRESHOLD
1                          ! NFFR : number of frequencies in the specified normal flow external boundary condition.
 STEADY               ! CONSTITUENT. 1  ALPHA DESCRIPTOR
 0.00000E-00  1.0 0.0  ! CONSTITUENT. 1 FREQ., NODAL FACTOR, EQUIL. ARG.
  STEADY       ! ALPHA NUMERIC DESCRIPTION OF ELEVATION BOUNDARY FORCING
0.0 0.0 
0.0 0.0 
0.0 0.0 
0.0 0.0
0.0 0.0
0.0 0.0 
0.0 0.0 
0.0 0.0 
0.0 0.0
0.0 0.0
0.0 0.0 
0.0 0.0 
0.0 0.0 
0.0 0.0
0.0 0.0
0.0 0.0 
0.0 0.0 
0.0 0.0 
0.0 0.0
0.0 0.0
0.0 0.0 
0.0 0.0 
0.0 0.0 
0.0 0.0
0.0 0.0
0.0 0.0 
0.0 0.0 
0.0 0.0 
0.0 0.0
0.0 0.0
%FORT61%     ! NOUTE,TOUTSE,TOUTFE,NSPOOLE:ELEV STATION OUTPUT INFO (UNIT  61)
 %NUMELEVSTATIONS%
%FORT62%0    ! NOUTV,TOUTSV,TOUTFV,NSPOOLV:VEL STATION OUTPUT INFO (UNIT  62)
 %NUMVELSTATIONS%
%FORT7172%
 %NUMMETSTATIONS%
%FORT63%     ! NOUTGE,TOUTSGE,TOUTFGE,NSPOOLGE : GLOBAL ELEV OUTPUT (UNIT  63)
%FORT64%     ! NOUTGV,TOUTSGV,TOUTFGV,NSPOOLGV : GLOBAL VEL  OUTPUT (UNIT  64)
%FORT7374%   ! NOUTGM,TOUTSGM,TOUTFGM,NSPOOLGM : GLOBAL MET  OUTPUT INFO (UNIT  73,74)    
 0                                     ! NHARF - NUMBER OF FREQENCIES IN HARMONIC ANALYSIS
 30  120   720  0.0000000    ! THAS, THAF, NHAINC,FMV
 0 0 0 0                    ! NHASE,NHASV,NHAGE,NHAGV
%NHSTAR%  %NHSINC%         ! NHSTAR,NHSINC
 0  0  1e-7  25            ! ITITER,ISLDIA,CONVCR,ITMAX
ASGS
UNC-CH IMS,ERDC,SeahorseCoastal
ERDC
ASGS Nowcast/Forecast
http://www.seahorsecoastal.com
No Comment
ERDC
CF
jason.fleming@seahorsecoastal.com	
varies
