 ASGS %StormName%
 %EnsembleID%
 1      ! NFOVER - NONFATAL ERROR OVERRIDE OPTION
 1      ! NABOUT - ABREVIATED OUTPUT OPTION PARAMETER
%NSCREEN%   ! output frequency (in time steps) to STDOUT or adcirc.log
%IHOT%      ! IHOT - HOT START PARAMETER
 2      ! ICS - COORDINATE SYSTEM SELECTION PARAMETER
 0      ! IM - MODEL SELECTION PARAMETER
 1      ! NOLIBF - BOTTOM FRICTION TERM SELECTION PARAMETER
 2      ! NOLIFA - FINITE AMPLITUDE TERM SELECTION PARAMETE
 0      ! NOLICA - SPATIAL DERIVATIVE CONVECTIVE SELECTION PARAMETER
 0      ! NOLICAT - TIME DERIVATIVE CONVECTIVE TERM SELECTION PARAMETER
 8      ! NWP - VARIABLE BOTTOM FRICTION AND LATERAL VISCOSITY OPTION PARAMETER
surface_submergence_state
surface_directional_effective_roughness_length
surface_canopy_coefficient
mannings_n_at_sea_floor
sea_surface_height_above_geoid
primitive_weighting_in_continuity_equation
average_horizontal_eddy_viscosity_in_sea_water_wrt_depth
wave_refraction_in_swan
 1      ! NCOR - VARIABLE CORIOLIS IN SPACE OPTION PARAMETER
 1      ! NTIP - TIDAL POTENTIAL OPTION PARAMETER
%NWS%     ! NWS - WIND STRESS AND BAROMETRIC PRESSURE OPTION PARAMETER
 2      ! NRAMP - RAMP FUNCTION OPTION
 9.81   ! G - ACCELERATION DUE TO GRAVITY - DETERMINES UNITS
 -3.0   ! TAU0 - WEIGHTING FACTOR IN GWCE
%DT%    ! DT - TIME STEP (IN SECONDS)
 0.00   ! STATIM - STARTING TIME (IN DAYS)
 0.00   ! REFTIM - REFERENCE TIME (IN DAYS)
%WTIMINC%
%RNDAY%    ! RNDAY - TOTAL LENGTH OF SIMULATION (IN DAYS)
 12.0 0.5 4.0           ! DRAMP - DURATION OF RAMP FUNCTION (IN DAYS)
 0.35 0.30 0.35         ! TIME WEIGHTING FACTORS FOR THE GWCE EQUATION
 0.10 0 0 0.01          ! H0, NODEDRYMIN, NODEWETMIN, VELMIN
 265.5 29.0             ! SLAM0,SFEA0 - CENTER OF CPP PROJECTION (NOT USED IF ICS=1, NTIP=0, NCOR=0)
 0.0000 2.0 10 1.33333  !  FFACTOR,HBREAK,FTHETA,FGAMMA
 50.0                   ! ESL - LATERAL EDDY VISCOSITY COEFFICIENT; IGNORED IF NWP =1
 0.0                    ! CORI - CORIOLIS PARAMETER - IGNORED IF NCOR = 1
 8                       ! NTIF - TOTAL NUMBER OF TIDAL POTENTIAL CONSTITUENTS
 Q1            ! ALPHANUMERIC DESCRIPTION OF TIDAL POTENTIAL FORCING DATA
 0.019256  0.000064958541129   0.695    %Q1NF%  %Q1EQARG%
 O1            ! ALPHANUMERIC DESCRIPTION OF TIDAL POTENTIAL FORCING DATA
 0.100514  0.000067597744151   0.695  %O1NF%  %O1EQARG%
 P1            ! ALPHANUMERIC DESCRIPTION OF TIDAL POTENTIAL FORCING DATA
 0.046843  0.000072522945975   0.706   %P1NF%  %P1EQARG%
 K1            ! ALPHANUMERIC DESCRIPTION OF TIDAL POTENTIAL FORCING DATA
 0.141565  0.000072921158358   0.736   %K1NF%  %K1EQARG%
 N2            ! ALPHANUMERIC DESCRIPTION OF TIDAL POTENTIAL FORCING DATA
 0.046398  0.000137879699487   0.693   %N2NF%  %N2EQARG%
 M2            ! ALPHANUMERIC DESCRIPTION OF TIDAL POTENTIAL FORCING DATA
 0.242334  0.000140518902509   0.693  %M2NF%  %M2EQARG%
 S2            ! ALPHANUMERIC DESCRIPTION OF TIDAL POTENTIAL FORCING DATA
 0.112841  0.000145444104333   0.693   %S2NF%  %S2EQARG%
 K2            ! ALPHANUMERIC DESCRIPTION OF TIDAL POTENTIAL FORCING DATA
 0.030704  0.000145842317201   0.693   %K2NF%  %K2EQARG%
 8             ! NBFR - TOTAL NUMBER OF FORCING FREQUENCIES ON OPEN BOUNDARY
 Q1            ! ALPHANUMERIC DESCRIPTION OF OPEN BOUNDARY FORCING DATA
 0.000064958541129  %Q1NF%  %Q1EQARG%
 O1            ! ALPHANUMERIC DESCRIPTION OF OPEN BOUNDARY FORCING DATA
 0.000067597744151  %O1NF%  %O1EQARG%
 P1            ! ALPHANUMERIC DESCRIPTION OF OPEN BOUNDARY FORCING DATA
 0.000072522945975   %P1NF%  %P1EQARG%
 K1            ! ALPHANUMERIC DESCRIPTION OF OPEN BOUNDARY FORCING DATA
 0.000072921158358   %K1NF%  %K1EQARG%
 N2            ! ALPHANUMERIC DESCRIPTION OF OPEN BOUNDARY FORCING DATA
 0.000137879699487 %N2NF%  %N2EQARG%
 M2            ! ALPHANUMERIC DESCRIPTION OF OPEN BOUNDARY FORCING DATA
 0.000140518902509  %M2NF%  %M2EQARG%
 S2            ! ALPHANUMERIC DESCRIPTION OF OPEN BOUNDARY FORCING DATA
 0.000145444104333 %S2NF%  %S2EQARG%
 K2            ! ALPHANUMERIC DESCRIPTION OF OPEN BOUNDARY FORCING DATA
 0.000145842317201  %K2NF%  %K2EQARG%
  Q1
      0.0111034997      9.7425937653         4         1
      0.0111286640     10.6459922791         4         2
      0.0110968025      9.7331237793         4         3
      0.0110729476      9.9889678955         4         4
      0.0110192504      9.2462644577         4         5
      0.0110919755      7.5238132477         4         6
      0.0112238629      4.4242997169         4         7
      0.0112646464      3.0050468445         4         8
      0.0112720737      2.4834887981         4         9
      0.0113394232      2.1473071575         4        10
      0.0114076603      1.6692947149         4        11
      0.0114631662      1.1788557768         4        12
      0.0115342131      0.6495152712         4        13
      0.0116078062      0.1897456348         4        14
      0.0116615072    359.6357727051         4        15
      0.0117311263    359.0788879395         4        16
      0.0117968321    358.5545043945         4        17
      0.0118530625    358.0647888184         4        18
      0.0119459145    357.5183105469         4        19
      0.0120293368    356.9623718262         4        20
      0.0120964181    356.3751220703         4        21
      0.0121846041    355.8423461914         4        22
      0.0122892503    355.3176879883         4        23
      0.0123792859    354.7868041992         4        24
      0.0124772331    354.2951049805         4        25
      0.0125571107    353.7351684570         4        26
      0.0126558188    353.3901367188         4        27
      0.0127044171    352.7638244629         4        28
      0.0127165085    351.6107482910         4        29
      0.0123907039    351.8160095215         4        30
      0.0119834105    352.4103698730         4        31
      0.0116960956    352.6031799316         4        32
      0.0112478733    352.6459350586         4        33
      0.0109454133    353.0340576172         4        34
      0.0106197242    353.8656921387         4        35
      0.0103687067    354.8771057129         4        36
      0.0100083854    355.5596923828         4        37
      0.0097959591    355.8880920410         4        38
      0.0097964527    357.1241149902         4        39
      0.0099605490    358.9492797852         4        40
      0.0100553343    359.4065246582         4        41
      0.0102705639    357.4581604004         4        42
      0.0104062892    355.8355102539         4        43
      0.0104647754    354.4389648438         4        44
      0.0105101084    353.1964721680         4        45
      0.0105199357    351.9818115234         4        46
      0.0105208652    350.8732604980         4        47
      0.0105041163    349.7229919434         4        48
      0.0104797008    348.6090393066         4        49
      0.0104487604    347.4952087402         4        50
      0.0104079721    346.3583374023         4        51
      0.0103644729    345.2059631348         4        52
      0.0103128273    344.0319519043         4        53
      0.0102582006    342.8225097656         4        54
      0.0101989852    341.5760192871         4        55
      0.0101364218    340.2841491699         4        56
      0.0100712227    338.9497375488         4        57
      0.0100027574    337.5576782227         4        58
      0.0099314842    336.1120910645         4        59
      0.0098588476    334.5817565918         4        60
      0.0097760158    333.0091857910         4        61
      0.0097048832    331.3994140625         4        62
      0.0096288081    329.7575683594         4        63
      0.0095478045    328.2045288086         4        64
      0.0094751967    326.4520263672         4        65
      0.0094002066    324.9360046387         4        66
      0.0093091987    323.1184387207         4        67
      0.0092807682    321.6521606445         4        68
      0.0091370689    319.8497314453         4        69
      0.0091997338    318.2593994141         4        70
      0.0089100637    317.4298400879         4        71
      0.0089285783    314.1138610840         4        72
      0.0085725142    313.8892211914         4        73
      0.0082824016    311.1563110352         4        74
      0.0081125274    310.5323486328         4        75
      0.0080124019    309.6759643555         4        76
      0.0078870999    308.5840148926         4        77
      0.0092380298     19.8646926880         4        78
      0.0093161948     21.0220737457         4        79
      0.0094056679     20.3136405945         4        80
      0.0095898965     20.6470050812         4        81
      0.0097222989     20.5284709930         4        82
      0.0099204229     20.0562496185         4        83
      0.0101078711     19.7768077850         4        84
      0.0102930320     19.2960453033         4        85
      0.0105250012     18.9228172302         4        86
      0.0107935080     18.4784698486         4        87
      0.0110502644     18.5504951477         4        88
      0.0110169416     17.5470275879         4        89
      0.0111403298     16.3141174316         4        90
      0.0112917386     15.1407938004         4        91
      0.0114431037     14.0043888092         4        92
      0.0115615437     12.9405374527         4        93
      0.0116762705     11.8219337463         4        94
      0.0117741209     10.7083864212         4        95
      0.0118598090      9.6152744293         4        96
      0.0119345952      8.4985847473         4        97
      0.0120052928      7.3778338432         4        98
      0.0120479790      6.2257642746         4        99
      0.0120870946      5.0474863052         4       100
      0.0121256104      3.8947567940         4       101
      0.0121466704      2.6757636070         4       102
      0.0121393800      1.4399422407         4       103
      0.0121223787      0.1027920693         4       104
      0.0121172331    358.8819885254         4       105
      0.0120510943    357.3846130371         4       106
      0.0119882179    355.9660034180         4       107
      0.0118374527    354.5993347168         4       108
      0.0117581161    353.3338623047         4       109
      0.0115843667    351.9648437500         4       110
      0.0114152823    351.0281066895         4       111
      0.0112421196    350.1032409668         4       112
      0.0110446895    349.4798889160         4       113
      0.0108798938    349.0199279785         4       114
      0.0107415998    348.7237854004         4       115
      0.0106342128    348.4502563477         4       116
      0.0105497036    348.2933959961         4       117
      0.0104692848    348.0393371582         4       118
      0.0104211746    347.7543334961         4       119
      0.0103744958    347.5667419434         4       120
      0.0103518637    346.9968261719         4       121
      0.0104652997    346.8050231934         4       122
  O1
      0.0450264998     22.3700981140         3         1
      0.0452062823     22.9503459930         3         2
      0.0450616181     22.1328449249         3         3
      0.0449937321     22.2872638702         3         4
      0.0447005965     21.4997062683         3         5
      0.0452084541     20.3278503418         3         6
      0.0459847003     18.6493740082         3         7
      0.0462384075     17.3269805908         3         8
      0.0463266931     16.7164859772         3         9
      0.0466723256     16.3237667084         3        10
      0.0470424406     15.7717428207         3        11
      0.0473566949     15.1948556900         3        12
      0.0477429926     14.5896015167         3        13
      0.0481385104     14.0645494461         3        14
      0.0484394506     13.4192762375         3        15
      0.0488265380     12.7874050140         3        16
      0.0491854586     12.1911334991         3        17
      0.0494945794     11.6318273544         3        18
      0.0499770083     11.0293006897         3        19
      0.0504235998     10.4092655182         3        20
      0.0508113466      9.7412614822         3        21
      0.0512693226      9.1526803970         3        22
      0.0518242083      8.5799789429         3        23
      0.0523055717      7.9913892746         3        24
      0.0528210700      7.4622445107         3        25
      0.0532466359      6.8148899078         3        26
      0.0537653789      6.4740533829         3        27
      0.0540650636      5.7805542946         3        28
      0.0542959571      4.4343814850         3        29
      0.0527692996      4.5457944870         3        30
      0.0506333299      5.0319356918         3        31
      0.0492313728      5.0467877388         3        32
      0.0470009595      4.8784122467         3        33
      0.0454965457      5.2167282104         3        34
      0.0437868498      6.2089567184         3        35
      0.0424386635      7.4555096626         3        36
      0.0405891389      8.2448358536         3        37
      0.0395560749      8.6167097092         3        38
      0.0395290852     10.2078704834         3        39
      0.0402700976     12.4833736420         3        40
      0.0407339334     12.9776496887         3        41
      0.0419413522     10.7304010391         3        42
      0.0426791199      8.8716354370         3        43
      0.0430237316      7.2502789497         3        44
      0.0432868488      5.8306560516         3        45
      0.0433891267      4.4115314484         3        46
      0.0434359498      3.1273124218         3        47
      0.0434044972      1.7826792002         3        48
      0.0433325209      0.4792895913         3        49
      0.0432299078    359.1752929688         3        50
      0.0430821143    357.8371582031         3        51
      0.0429221876    356.4859313965         3        52
      0.0427264646    355.1008605957         3        53
      0.0425194055    353.6767272949         3        54
      0.0422937684    352.2032165527         3        55
      0.0420574471    350.6752319336         3        56
      0.0418152027    349.0958251953         3        57
      0.0415596813    347.4476013184         3        58
      0.0412997119    345.7333679199         3        59
      0.0410425030    343.9165649414         3        60
      0.0407398567    342.0371704102         3        61
      0.0405085944    340.1310424805         3        62
      0.0402639359    338.1783752441         3        63
      0.0399864502    336.3275756836         3        64
      0.0397846438    334.2470703125         3        65
      0.0395418182    332.4589233398         3        66
      0.0392749980    330.2680969238         3        67
      0.0392612144    328.6240234375         3        68
      0.0387318283    326.3526611328         3        69
      0.0392361581    324.7775573730         3        70
      0.0379346088    323.2642822266         3        71
      0.0385775156    319.8492431641         3        72
      0.0368597917    318.8598327637         3        73
      0.0359469205    315.2181701660         3        74
      0.0352036729    314.0579223633         3        75
      0.0347667672    312.9455871582         3        76
      0.0343589000    311.4299011230         3        77
      0.0323037989     40.2713012695         3        78
      0.0328753106     41.9296264648         3        79
      0.0332570411     40.7689666748         3        80
      0.0342664383     41.1737403870         3        81
      0.0348890014     40.8487815857         3        82
      0.0358783714     40.0885543823         3        83
      0.0368186720     39.5906982422         3        84
      0.0377409793     38.8176383972         3        85
      0.0388868935     38.1854515076         3        86
      0.0402622446     37.4351043701         3        87
      0.0416595675     37.3844871521         3        88
      0.0414930992     36.0983848572         3        89
      0.0420642123     34.4215507507         3        90
      0.0428084135     32.8185768127         3        91
      0.0435691215     31.2831287384         3        92
      0.0441662669     29.8468341827         3        93
      0.0447544754     28.3574714661         3        94
      0.0452636741     26.8793678284         3        95
      0.0457104370     25.4409656525         3        96
      0.0461140759     23.9732723236         3        97
      0.0465063304     22.5122451782         3        98
      0.0467545539     21.0029487610         3        99
      0.0469930060     19.4627342224         3       100
      0.0472409129     17.9607429504         3       101
      0.0474102981     16.3789730072         3       102
      0.0474292971     14.7566862106         3       103
      0.0474187955     13.0265560150         3       104
      0.0474915728     11.4542322159         3       105
      0.0472716056      9.4752120972         3       106
      0.0470550433      7.6227979660         3       107
      0.0464009792      5.7464451790         3       108
      0.0461386442      4.0960078239         3       109
      0.0454117917      2.2194669247         3       110
      0.0446716882      0.8778185844         3       111
      0.0439200774    359.5419921875         3       112
      0.0430056937    358.5455932617         3       113
      0.0422423780    357.7776184082         3       114
      0.0415932387    357.2406005859         3       115
      0.0411042571    356.7573242188         3       116
      0.0407028347    356.4491882324         3       117
      0.0403331034    356.0152282715         3       118
      0.0401304364    355.5849609375         3       119
      0.0399228893    355.2792968750         3       120
      0.0398971327    354.4977111816         3       121
      0.0405147001    354.4084167480         3       122
  P1
      0.00915                  5.285        11        1
      0.00925                  5.075        11        2
      0.00925                  4.865        11        3
      0.00935                  4.795        11        4
      0.00945                  4.765        11        5
      0.00955                  4.695        11        6
      0.00965                  4.585        11        7
      0.00975                  4.435        11        8
      0.00975                  4.255        11        9
      0.00985                  4.025        11        10
      0.00995                  3.995        11        11
      0.01005                  3.670        11        12
      0.01010                  3.355        11        13
      0.01020                  3.030        11        14
      0.01030                  2.710        11        15
      0.01035                  2.395        11        16
      0.01045                  2.080        11        17
      0.01050                  1.765        11        18
      0.01060                  1.455        11        19
      0.01075                  1.150        11        20
      0.01085                  0.865        11        21
      0.01095                  0.590        11        22
      0.01110                  0.340        11        23
      0.01130                  0.105        11        24
      0.01145                359.880        11        25
      0.01160                359.665        11        26
      0.01170                359.640        11        27
      0.01165                359.800        11        28
      0.01165                359.960        11        29
      0.01160                  0.110        11        30
      0.01160                  0.240        11        31
      0.01160                  0.345        11        32
      0.01165                  0.435        11        33
      0.01150                359.730        11        34
      0.01125                358.920        11        35
      0.01105                358.025        11        36
      0.01080                357.010        11        37
      0.01055                355.870        11        38
      0.01030                354.570        11        39
      0.01015                353.875        11        40
      0.01010                353.890        11        41
      0.01005                353.850        11        42
      0.01005                353.710        11        43
      0.01000                353.480        11        44
      0.01000                353.160        11        45
      0.01000                352.500        11        46
      0.00995                350.755        11        47
      0.00995                348.960        11        48
      0.00990                347.110        11        49
      0.00990                345.215        11        50
      0.00985                343.280        11        51
      0.00990                341.300        11        52
      0.00985                339.270        11        53
      0.00975                337.175        11        54
      0.00970                335.035        11        55
      0.00965                332.840        11        56
      0.00960                330.615        11        57
      0.00955                328.350        11        58
      0.00955                325.885        11        59
      0.00950                323.105        11        60
      0.00950                320.265        11        61
      0.00955                317.525        11        62
      0.00960                314.865        11        63
      0.00970                312.290        11        64
      0.00980                309.825        11        65
      0.00980                307.000        11        66
      0.00975                303.890        11        67
      0.00970                300.825        11        68
      0.00975                297.820        11        69
      0.00975                294.910        11        70
      0.00985                292.100        11        71
      0.00990                289.410        11        72
      0.01005                286.840        11        73
      0.01010                284.540        11        74
      0.01015                282.520        11        75
      0.01020                280.495        11        76
      0.01015                278.490        11        77
      0.00845                 34.325        11        78
      0.00835                 33.495        11        79
      0.00855                 33.635        11        80
      0.00875                 33.455        11        81
      0.00885                 32.905        11        82
      0.00905                 31.935        11        83
      0.00935                 30.475        11        84
      0.00955                 28.485        11        85
      0.00975                 27.025        11        86
      0.00995                 26.660        11        87
      0.01020                 26.295        11        88
      0.01040                 25.935        11        89
      0.01065                 25.585        11        90
      0.01090                 24.490        11        91
      0.01115                 23.070        11        92
      0.01140                 21.615        11        93
      0.01165                 20.130        11        94
      0.01185                 18.560        11        95
      0.01200                 17.000        11        96
      0.01220                 15.455        11        97
      0.01240                 13.885        11        98
      0.01260                 12.135        11        99
      0.01275                 10.420        11        100
      0.01295                  8.735        11        101
      0.01305                  7.010        11        102
      0.01315                  5.165        11        103
      0.01330                  3.270        11        104
      0.01345                  1.375        11        105
      0.01365                359.340        11        106
      0.01385                357.145        11        107
      0.01410                355.015        11        108
      0.01435                352.995        11        109
      0.01445                351.435        11        110
      0.01455                350.210        11        111
      0.01450                349.025        11        112
      0.01455                347.885        11        113
      0.01460                346.780        11        114
      0.01460                345.800        11        115
      0.01460                345.095        11        116
      0.01460                344.425        11        117
      0.01455                343.780        11        118
      0.01455                343.205        11        119
      0.01455                343.045        11        120
      0.01465                342.900        11        121
      0.01465                342.765        11        122
  K1                     ! ALPHA NUMERIC DESCRIPTION OF ELEVATION BOUNDARY FORCIN
      0.0333045013     18.0231895447         2         1
      0.0335393362     18.4798164368         2         2
      0.0333885439     17.6393718719         2         3
      0.0333487801     17.7640304565         2         4
      0.0330177248     16.9162769318         2         5
      0.0336782411     15.8592815399         2         6
      0.0346326120     14.6690416336         2         7
      0.0349771120     13.1832323074         2         8
      0.0351183601     12.3849897385         2         9
      0.0354910642     11.8486089706         2        10
      0.0359076448     11.0974798203         2        11
      0.0362802446     10.3147687912         2        12
      0.0367088988      9.5183267593         2        13
      0.0371534713      8.8336887360         2        14
      0.0375011787      7.9672303200         2        15
      0.0379418731      7.1561784744         2        16
      0.0383426175      6.3798403740         2        17
      0.0386828668      5.6419119835         2        18
      0.0392095931      4.8916063309         2        19
      0.0397030115      4.1139931679         2        20
      0.0401490331      3.2720754147         2        21
      0.0406495295      2.5223550797         2        22
      0.0412629358      1.8212342262         2        23
      0.0418135785      1.0948579311         2        24
      0.0423775464      0.4528396428         2        25
      0.0428735353    359.6309509277         2        26
      0.0434243530    359.2693786621         2        27
      0.0438045897    358.4513549805         2        28
      0.0441209786    356.8202209473         2        29
      0.0424450003    357.0001831055         2        30
      0.0399651155    357.4142761230         2        31
      0.0385072231    357.4125976563         2        32
      0.0360602550    356.9228515625         2        33
      0.0344133601    357.3055725098         2        34
      0.0324320197    358.6384277344         2        35
      0.0308451708      0.4524073303         2        36
      0.0287293196      1.5434496403         2        37
      0.0275842734      2.1832816601         2        38
      0.0275676325      4.7605333328         2        39
      0.0284429714      8.3327465057         2        40
      0.0290268771      9.1431856155         2        41
      0.0302740969      5.9561800957         2        42
      0.0310174394      3.3377709389         2        43
      0.0313531943      1.0559176207         2        44
      0.0315844119    359.0872192383         2        45
      0.0316767916    357.0955200195         2        46
      0.0317004211    355.3042297363         2        47
      0.0316553451    353.4077148438         2        48
      0.0315675586    351.5663452148         2        49
      0.0314513408    349.7145080566         2        50
      0.0312994234    347.7965087891         2        51
      0.0311370380    345.8540649414         2        52
      0.0309521072    343.8458862305         2        53
      0.0307619646    341.7723388672         2        54
      0.0305669662    339.6093139648         2        55
      0.0303753521    337.3558654785         2        56
      0.0301953275    335.0178222656         2        57
      0.0300165303    332.5627441406         2        58
      0.0298585221    330.0012817383         2        59
      0.0297339875    327.2825622559         2        60
      0.0295886286    324.4354858398         2        61
      0.0295437276    321.5939025879         2        62
      0.0295194592    318.6852416992         2        63
      0.0294554774    315.9028015137         2        64
      0.0295627341    312.8596801758         2        65
      0.0295565743    310.2201538086         2        66
      0.0296894852    307.0137023926         2        67
      0.0299004558    304.7848510742         2        68
      0.0298623946    301.2684936523         2        69
      0.0305865351    299.6563415527         2        70
      0.0296976175    296.6378173828         2        71
      0.0310642552    292.9353637695         2        72
      0.0296890978    290.1184692383         2        73
      0.0298117995    284.7969055176         2        74
      0.0294344109    282.7426452637         2        75
      0.0292564649    280.8954162598         2        76
      0.0293090008    278.7169189453         2        77
      0.0119848000     51.1380996704         2        78
      0.0130069759     55.2012443542         2        79
      0.0131261209     51.2387199402         2        80
      0.0143627580     51.3195724487         2        81
      0.0149789304     49.5659637451         2        82
      0.0159846339     46.9091949463         2        83
      0.0169974770     45.0554466248         2        84
      0.0179712232     42.7178421021         2        85
      0.0192471966     40.7321891785         2        86