 ASGS %StormName%
 %EnsembleID%
 1             ! NFOVER - NONFATAL ERROR OVERRIDE OPTION
 2             ! NABOUT - ABREVIATED OUTPUT OPTION PARAMETER
%NSCREEN%   ! output frequency (in time steps) to STDOUT or adcirc.log
 %IHOT%        !  IHOT - HOT START PARAMETER
 2             ! ICS - COORDINATE SYSTEM SELECTION PARAMETER
 0             ! IM - MODEL SELECTION PARAMETER 
 1             ! NOLIBF - BOTTOM FRICTION TERM SELECTION PARAMETER
 2             ! NOLIFA - FINITE AMPLITUDE TERM SELECTION PARAMETER
 0             ! NOLICA - SPATIAL DERIVATIVE CONVECTIVE SELECTION PARAMETER
 0             ! NOLICAT - TIME DERIVATIVE CONVECTIVE TERM SELECTION PARAMETER
 6             ! NWP - VARIABLE BOTTOM FRICTION AND LATERAL VISCOSITY OPTION PARAMETER
surface_submergence_state
mannings_n_at_sea_floor
sea_surface_height_above_geoid
primitive_weighting_in_continuity_equation
average_horizontal_eddy_viscosity_in_sea_water_wrt_depth
elemental_slope_limiter
1            ! NCOR - VARIABLE CORIOLIS IN SPACE OPTION PARAMETER
0            ! NTIP - TIDAL POTENTIAL OPTION PARAMETER
%NWS%        !  NWS - WIND STRESS AND BAROMETRIC PRESSURE OPTION PARAMETER
1            ! NRAMP - RAMP FUNCTION OPTION
9.80665      ! G - ACCELERATION DUE TO GRAVITY - DETERMINES UNITS
-3.0         ! TAU0 - WEIGHTING FACTOR IN GWCE
 %DT%        ! DT - TIME STEP (IN SECONDS)
0.00         ! STATIM - STARTING TIME (IN DAYS)
0.00         ! REFTIM - REFERENCE TIME (IN DAYS)
 %WTIMINC%   ! WTIMINC and RSTIMINC in (seconds)
 %RNDAY%     ! RNDAY - TOTAL LENGTH OF SIMULATION (IN DAYS)
 5.0              ! DRAMP - DURATION OF RAMP FUNCTION (IN DAYS)
0.35 0.30 0.35    ! TIME WEIGHTING FACTORS FOR THE GWCE EQUATION
0.10 12 12 0.10   ! H0, NODEDRYMIN, NODEWETMIN, VELMIN
-93.37 29.00      ! SLAM0,SFEA0 - CENTER OF CPP PROJECTION (NOT USED IF ICS=1, NTIP=0, NCOR=0)
0.00026 2.0 10 1.33333 !  FFACTOR,HBREAK,FTHETA,FGAMMA
4.0   ! ESLM - SPATIALLY CONSTANT HORIZONTAL EDDY VISCOSITY FOR THE MOMENTUM EQUATIONS IGNORED IF NWP=1
0.0    ! CORI - CORIOLIS PARAMETER - IGNORED IF NCOR = 1
8     ! NTIF - TOTAL NUMBER OF TIDAL POTENTIAL CONSTITUENTS BEING FORCED
  M2           !  ( 42.0 Days beginning at 04-Aug-2017 at 00:00 GMT )
     0.24233900   0.0001405189   0.695    %M2NF%   %M2EQARG%  !M2
  S2
     0.11303300   0.0001454441   0.695    %S2NF%   %S2EQARG%  !S2
  N2
     0.04639800   0.0001378797   0.693    %N2NF%   %N2EQARG%  !N2
  K1
     0.14156500   0.0000729212   0.736    %K1NF%   %K1EQARG%  !K1
  O1
     0.10051400   0.0000675977   0.695    %O1NF%   %O1EQARG%  !O1
  Q1
     0.01925600   0.0000649585   0.695    %Q1NF%   %Q1EQARG%  !Q1
  P1
     0.04683400   0.0000725229   0.706    %P1NF%   %P1EQARG%  !P1
  K2
     0.03070400   0.0001458423   0.693    %K2NF%   %K2EQARG%  !K2
8           ! NBFR - TOTAL NUMBER OF FORCING FREQUENCIES ON OPEN BOUNDARIES
  M2        !   ( 42.0 Days beginning at 04-Aug-2017 at 00:00 GMT )
     0.0001405189  %M2NF%   %M2EQARG%  !M2 
  S2
     0.0001454441  %S2NF%   %S2EQARG%  !S2
  N2
     0.0001378797  %N2NF%   %N2EQARG%  !N2
  K1
     0.0000729212  %K1NF%   %K1EQARG%  !K1
  O1
     0.0000675977  %O1NF%   %O1EQARG%  !O1
  Q1
     0.0000649585  %Q1NF%   %Q1EQARG%  !Q1
  P1
     0.0000725229  %P1NF%   %P1EQARG%  !P1
  K2
     0.0001458423  %K2NF%   %K2EQARG%  !K2
M2
   0.499300  222.110000
   0.499300  222.110000
   0.499300  222.110000
   0.499300  222.110000
   0.499300  222.110000
   0.499300  222.110000
   0.499300  222.110000
   0.499300  222.110000
   0.499300  222.110000
   0.496287  221.996845
   0.493273  221.883691
   0.490260  221.770536
   0.487247  221.657381
   0.483885  221.531162
   0.480524  221.404942
   0.477163  221.278723
   0.473826  221.166361
   0.470110  221.076177
   0.466394  220.985993
   0.462677  220.895810
   0.458961  220.805629
   0.455245  220.715445
   0.451529  220.625261
   0.447322  220.513118
   0.443015  220.396501
   0.439298  220.295874
   0.435582  220.195248
   0.431865  220.094622
   0.428149  219.993992
   0.423926  219.879659
   0.419489  219.753966
   0.415007  219.625913
   0.410525  219.497861
   0.406819  219.396280
   0.403444  219.308472
   0.400069  219.220664
   0.396694  219.132856
   0.393552  219.052605
   0.390453  218.973761
   0.386346  218.869251
   0.382239  218.764741
   0.378356  218.665921
   0.374553  218.569152
   0.371865  218.504738
   0.368864  218.434527
   0.366037  218.368409
   0.361422  218.260456
   0.357424  218.166936
   0.354192  218.082991
   0.351225  218.003719
   0.348258  217.924446
   0.345149  217.841398
   0.342140  217.772071
   0.338744  217.707095
   0.335347  217.642118
   0.331210  217.569439
   0.326988  217.519346
   0.322535  217.466522
   0.318045  217.424970
   0.311046  217.378309
   0.304154  217.345825
   0.300377  217.332913
   0.296600  217.320000
   0.291100  217.340000
   0.285600  217.360000
   0.281521  217.415616
   0.277443  217.471232
   0.272170  217.582905
   0.267155  217.733344
   0.261622  217.899335
   0.256089  218.065325
   0.251617  218.261229
   0.247400  218.475000
   0.243800  218.657499
   0.240200  218.840000
   0.237050  219.024999
   0.233900  219.210000
   0.230750  219.394999
   0.227600  219.580000
   0.224125  219.720000
   0.220650  219.860000
   0.216778  220.015975
   0.212844  220.158828
   0.208448  220.255535
   0.204053  220.352243
   0.199581  220.450618
   0.195348  220.547350
   0.190254  220.664903
   0.185160  220.785600
   0.180208  220.908348
   0.175261  221.030757
   0.172209  221.090015
   0.169157  221.149274
   0.166230  221.206113
   0.163194  221.303140
   0.160269  221.421643
   0.157598  221.529842
   0.155248  221.719589
   0.152845  221.939644
   0.150106  222.190457
   0.146815  222.477828
   0.143510  222.757180
   0.140670  222.997250
   0.137900  223.267768
   0.134305  223.680686
   0.131348  224.020283
   0.128364  224.394906
   0.125524  224.863315
   0.122530  225.357279
   0.119535  225.851239
   0.114349  226.808804
   0.108900  227.820000
   0.103350  229.025008
   0.097800  230.230010
   0.092350  231.830010
   0.086900  233.430000
   0.081850  235.720014
   0.076800  238.010020
   0.072200  241.115020
   0.067600  244.220000
   0.063800  248.265000
   0.059744  252.801314
   0.057284  257.515772
   0.054600  262.660000
   0.053050  271.590000
   0.051500  280.520000
   0.053200  289.935000
   0.054900  299.350000
   0.060600  308.470000
   0.066300  317.590000
   0.073700  323.340000
   0.081100  329.090000
   0.089000  332.570000
   0.096900  336.050000
   0.106000  338.580000
   0.115100  341.110000
   0.124050  342.795000
   0.133000  344.480000
   0.140800  345.570000
   0.148600  346.660000
   0.156100  347.485000
   0.163600  348.310000
   0.172250  349.095000
   0.180900  349.880000
   0.189100  350.490000
   0.197300  351.100000
   0.205350  351.600000
   0.213400  352.100000
   0.220950  352.475000
   0.228500  352.850000
   0.235500  353.120000
   0.242500  353.390000
   0.249300  353.595000
   0.256100  353.800000
   0.262550  353.950000
   0.269000  354.100000
   0.275200  354.200000
   0.281400  354.300000
   0.288000  354.350000
   0.294600  354.400000
   0.300850  354.385000
   0.307100  354.370000
   0.312700  354.325000
   0.318300  354.280000
   0.323600  354.190000
   0.328900  354.100000
   0.333250  353.995000
   0.337600  353.890000
   0.341750  353.760000
   0.345900  353.630000
   0.349950  353.465000
   0.354000  353.300000
   0.357700  353.095000
   0.361400  352.890000
   0.365300  352.620000
   0.369200  352.350000
   0.373150  352.065000
   0.377100  351.780000
   0.379850  351.475000
   0.382600  351.170000
   0.386000  350.845000
   0.389400  350.520000
   0.391100  350.340000
   0.392800  350.160000
   0.394550  349.960000
   0.396300  349.760000
   0.398100  349.550000
   0.399900  349.340000
   0.401700  349.110000
   0.403500  348.880000
   0.405400  348.620000
   0.407300  348.350000
   0.409300  348.070000
   0.411300  347.780000
   0.413300  347.480000
   0.415200  347.170000
   0.417200  346.850000
   0.419100  346.510000
   0.421100  346.140000
   0.423000  345.760000
   0.424800  345.380000
   0.426600  344.990000
   0.427500  344.780000
   0.428600  344.520000
   0.429700  344.260000
   0.430700  343.990000
   0.431500  343.850000
   0.432100  343.770000
   0.433500  343.700000
   0.439900  343.790000
   0.445500  343.910000
   0.457500  345.280000
   0.469900  346.700000
   0.477600  347.180000
   0.480900  347.170000
   0.484600  347.140000
   0.487700  347.000000
   0.490900  346.860000
   0.493500  346.680000
   0.495400  346.450000
   0.496400  346.310000
   0.496500  346.120000
   0.496600  345.940000
   0.496700  345.750000
   0.496000  345.560000
   0.495000  345.360000
   0.494000  345.160000
   0.492600  344.920000
   0.490300  344.620000
   0.488100  344.330000
   0.486000  344.060000
   0.486000  344.060000
   0.486000  344.060000
   0.486000  344.060000
   0.486000  344.060000
   0.486000  344.060000
   0.486000  344.060000
   0.486000  344.060000
S2
   0.182100  252.520000
   0.182100  252.520000
   0.182100  252.520000
   0.182100  252.520000
   0.182100  252.520000
   0.182100  252.520000
   0.182100  252.520000
   0.182100  252.520000
   0.182100  252.520000
   0.180833  252.283851
   0.179566  252.047702
   0.178299  251.811554
   0.177033  251.575405
   0.175620  251.311990
   0.174206  251.048575
   0.172793  250.785161
   0.171413  250.542532
   0.169936  250.323292
   0.168459  250.104053
   0.166981  249.884813
   0.165504  249.665580
   0.164027  249.446340
   0.162550  249.227101
   0.160840  248.918729
   0.159083  248.592202
   0.157567  248.310448
   0.156051  248.028694
   0.154535  247.746940
   0.153019  247.465176
   0.151296  247.145045
   0.149485  246.784520
   0.147656  246.415608
   0.145827  246.046695
   0.144358  245.722880
   0.143068  245.407320
   0.141778  245.091760
   0.140489  244.776200
   0.139283  244.480521
   0.138094  244.188658
   0.136517  243.801788
   0.134940  243.414917
   0.133449  243.049113
   0.131989  242.690895
   0.130976  242.438954
   0.129852  242.158108
   0.128795  241.893635
   0.127067  241.461825
   0.125571  241.087744
   0.124400  240.753877
   0.123336  240.439057
   0.122271  240.124230
   0.121156  239.794409
   0.120092  239.523363
   0.118911  239.275271
   0.117729  239.027179
   0.116298  238.759071
   0.114867  238.612372
   0.113358  238.457671
   0.111848  238.351818
   0.109515  238.264330
   0.107183  238.194563
   0.105891  238.162282
   0.104600  238.130000
   0.102600  238.085000
   0.100600  238.040000
   0.099265  238.106739
   0.097930  238.173479
   0.096234  238.301411
   0.094655  238.469401
   0.092912  238.654757
   0.091169  238.840113
   0.089768  239.035015
   0.088450  239.240000
   0.087325  239.414999
   0.086200  239.590000
   0.085175  239.767499
   0.084150  239.945000
   0.083125  240.122499
   0.082100  240.300000
   0.080950  240.490000
   0.079800  240.680000
   0.078519  240.891681
   0.077203  241.097655
   0.075679  241.291071
   0.074156  241.484486
   0.072605  241.681237
   0.071211  241.825998
   0.069557  241.987090
   0.067918  242.101007
   0.066352  242.130636
   0.064787  242.158940
   0.063780  242.075978
   0.062772  241.993017
   0.061806  241.913442
   0.060874  241.893714
   0.060023  241.915933
   0.059245  241.936220
   0.058564  242.002480
   0.057870  242.083553
   0.057078  242.175958
   0.056147  242.285494
   0.055228  242.394509
   0.054437  242.488195
   0.053656  242.631449
   0.052623  242.905542
   0.051774  243.130964
   0.050923  243.374910
   0.050133  243.664739
   0.049299  243.970379
   0.048465  244.276016
   0.047019  244.723697
   0.045500  245.190000
   0.043850  245.710003
   0.042200  246.230005
   0.040550  247.005005
   0.038900  247.780000
   0.037300  248.885007
   0.035700  249.990009
   0.034150  251.375009
   0.032600  252.760000
   0.031150  254.470000
   0.029572  256.389817
   0.028342  258.403141
   0.027000  260.600000
   0.025350  264.835000
   0.023700  269.070000
   0.022400  274.990000
   0.021100  280.910000
   0.020300  289.825000
   0.019500  298.740000
   0.019600  307.445000
   0.019700  316.150000
   0.020550  323.215000
   0.021400  330.280000
   0.022850  336.355000
   0.024300  342.430000
   0.026050  346.810000
   0.027800  351.190000
   0.029450  354.125000
   0.031100  357.060000
   0.032800  359.305000
   0.034500    1.550000
   0.036600    3.645000
   0.038700    5.740000
   0.040750    7.345000
   0.042800    8.950000
   0.044850   10.235000
   0.046900   11.520000
   0.048900   12.515000
   0.050900   13.510000
   0.052750   14.265000
   0.054600   15.020000
   0.056350   15.640000
   0.058100   16.260000
   0.059800   16.765000
   0.061500   17.270000
   0.063100   17.700000
   0.064700   18.130000
   0.066350   18.495000
   0.068000   18.860000
   0.069550   19.135000
   0.071100   19.410000
   0.072500   19.615000
   0.073900   19.820000
   0.075200   19.960000
   0.076500   20.100000
   0.077600   20.170000
   0.078700   20.240000
   0.079700   20.260000
   0.080700   20.280000
   0.081650   20.250000
   0.082600   20.220000
   0.083500   20.135000
   0.084400   20.050000
   0.085250   19.885000
   0.086100   19.720000
   0.087050   19.565000
   0.088000   19.410000
   0.088500   19.255000
   0.089000   19.100000
   0.089700   18.895000
   0.090400   18.690000
   0.090750   18.580000
   0.091100   18.470000
   0.091450   18.335000
   0.091800   18.200000
   0.092150   18.060000
   0.092500   17.920000
   0.092900   17.770000
   0.093300   17.620000
   0.093700   17.450000
   0.094100   17.290000
   0.094500   17.110000
   0.095000   16.920000
   0.095400   16.730000
   0.095800   16.540000
   0.096300   16.330000
   0.096700   16.110000
   0.097200   15.870000
   0.097600   15.630000
   0.098100   15.380000
   0.098600   15.110000
   0.098800   14.960000
   0.099100   14.780000
   0.099500   14.580000
   0.099900   14.350000
   0.100500   14.240000
   0.101300   14.190000
   0.102500   14.110000
   0.106600   13.940000
   0.109900   13.870000
   0.112700   15.980000
   0.115500   18.170000
   0.117600   19.450000
   0.118700   19.960000
   0.119900   20.510000
   0.120800   20.750000
   0.121700   21.000000
   0.122300   21.210000
   0.122800   21.360000
   0.123100   21.440000
   0.123200   21.410000
   0.123300   21.370000
   0.123400   21.330000
   0.123300   21.290000
   0.123200   21.240000
   0.123000   21.200000
   0.122800   21.110000
   0.122300   20.970000
   0.121800   20.830000
   0.121400   20.700000
   0.121400   20.700000
   0.121400   20.700000
   0.121400   20.700000
   0.121400   20.700000
   0.121400   20.700000
   0.121400   20.700000
   0.121400   20.700000
N2
   0.109400  209.960000
   0.109400  209.960000
   0.109400  209.960000
   0.109400  209.960000
   0.109400  209.960000
   0.109400  209.960000
   0.109400  209.960000
   0.109400  209.960000
   0.109400  209.960000
   0.108650  209.704172
   0.107899  209.448344
   0.107149  209.192516
   0.106399  208.936689
   0.105562  208.651323
   0.104725  208.365957
   0.103888  208.080591
   0.103076  207.823347
   0.102221  207.607217
   0.101365  207.391087
   0.100510  207.174957
   0.099655  206.958834
   0.098800  206.742704
   0.097945  206.526574
   0.096999  206.270400
   0.096035  206.006068
   0.095203  205.777982
   0.094371  205.549895
   0.093540  205.321809
   0.092708  205.093714
   0.091763  204.834561
   0.090767  204.552685
   0.089761  204.266092
   0.088755  203.979498
   0.087945  203.739333
   0.087231  203.517069
   0.086518  203.294805
   0.085804  203.072541
   0.085132  202.866192
   0.084469  202.662857
   0.083588  202.393331
   0.082708  202.123805
   0.081876  201.868955
   0.081061  201.619391
   0.080481  201.439873
   0.079832  201.238015
   0.079220  201.047925
   0.078222  200.737561
   0.077357  200.468691
   0.076683  200.215143
   0.076072  199.972799
   0.075460  199.730450
   0.074819  199.476559
   0.074195  199.262405
   0.073486  199.058615
   0.072778  198.854825
   0.071919  198.633597
   0.071060  198.508366
   0.070155  198.376304
   0.069249  198.279939
   0.067849  198.186619
   0.066450  198.111020
   0.065675  198.075510
   0.064900  198.040000
   0.063750  197.995000
   0.062600  197.950000
   0.061784  198.001908
   0.060969  198.053817
   0.059950  198.158045
   0.059023  198.298454
   0.057999  198.453379
   0.056975  198.608303
   0.056120  198.782585
   0.055300  198.970000
   0.054600  199.129999
   0.053900  199.290000
   0.053275  199.474999
   0.052650  199.660000
   0.052025  199.844999
   0.051400  200.030000
   0.050725  200.245000
   0.050050  200.460000
   0.049298  200.699534
   0.048529  200.941919
   0.047650  201.208597
   0.046771  201.475276
   0.045876  201.746554
   0.045070  202.020591
   0.044112  202.355835
   0.043154  202.683213
   0.042223  202.987968
   0.041292  203.292726
   0.040670  203.506056
   0.040048  203.719385
   0.039451  203.924006
   0.038834  204.268274
   0.038242  204.686738
   0.037701  205.068815
   0.037221  205.470252
   0.036728  205.898780
   0.036167  206.387206
   0.035532  206.933143
   0.034918  207.454372
   0.034391  207.902307
   0.033862  208.349526
   0.033151  208.947545
   0.032565  209.439375
   0.031975  209.951297
   0.031419  210.492896
   0.030833  211.064042
   0.030246  211.635182
   0.029200  212.684496
   0.028100  213.790000
   0.026950  215.085008
   0.025800  216.380010
   0.024700  217.980010
   0.023600  219.580000
   0.022550  221.605013
   0.021500  223.630016
   0.020500  226.155016
   0.019500  228.680000
   0.018650  231.750000
   0.017738  235.177449
   0.017146  238.607388
   0.016500  242.350000
   0.015800  248.950000
   0.015100  255.550000
   0.015000  263.410000
   0.014900  271.270000
   0.015600  280.430000
   0.016300  289.590000
   0.017600  296.250000
   0.018900  302.910000
   0.020400  307.275000
   0.021900  311.640000
   0.023700  314.950000
   0.025500  318.260000
   0.027350  320.485000
   0.029200  322.710000
   0.030850  324.125000
   0.032500  325.540000
   0.034050  326.575000
   0.035600  327.610000
   0.037500  328.520000
   0.039400  329.430000
   0.041200  330.080000
   0.043000  330.730000
   0.044800  331.210000
   0.046600  331.690000
   0.048300  332.020000
   0.050000  332.350000
   0.051550  332.570000
   0.053100  332.790000
   0.054650  332.950000
   0.056200  333.110000
   0.057600  333.225000
   0.059000  333.340000
   0.060400  333.420000
   0.061800  333.500000
   0.063200  333.540000
   0.064600  333.580000
   0.065950  333.580000
   0.067300  333.580000
   0.068500  333.565000
   0.069700  333.550000
   0.070900  333.505000
   0.072100  333.460000
   0.073050  333.390000
   0.074000  333.320000
   0.074950  333.230000
   0.075900  333.140000
   0.076800  333.005000
   0.077700  332.870000
   0.078550  332.695000
   0.079400  332.520000
   0.080350  332.265000
   0.081300  332.010000
   0.082200  331.750000
   0.083100  331.490000
   0.083750  331.170000
   0.084400  330.850000
   0.085150  330.515000
   0.085900  330.180000
   0.086250  329.995000
   0.086600  329.810000
   0.087000  329.610000
   0.087400  329.410000
   0.087800  329.190000
   0.088200  328.970000
   0.088600  328.740000
   0.089000  328.500000
   0.089400  328.240000
   0.089800  327.970000
   0.090300  327.680000
   0.090700  327.380000
   0.091100  327.080000
   0.091600  326.750000
   0.092000  326.420000
   0.092400  326.070000
   0.092900  325.690000
   0.093300  325.310000
   0.093700  324.910000
   0.094100  324.500000
   0.094400  324.270000
   0.094600  324.000000
   0.094900  323.720000
   0.095200  323.440000
   0.095300  323.300000
   0.095500  323.230000
   0.095800  323.230000
   0.097400  323.870000
   0.098800  324.460000
   0.102600  326.770000
   0.106500  329.160000
   0.108900  330.160000
   0.110000  330.330000
   0.111300  330.490000
   0.112400  330.400000
   0.113600  330.300000
   0.114800  330.110000
   0.115900  329.820000
   0.116500  329.630000
   0.117000  329.290000
   0.117500  328.950000
   0.118000  328.610000
   0.118200  328.160000
   0.118300  327.660000
   0.118500  327.170000
   0.118300  326.550000
   0.117700  325.720000
   0.117000  324.920000
   0.116400  324.160000
   0.116400  324.160000
   0.116400  324.160000
   0.116400  324.160000
   0.116400  324.160000
   0.116400  324.160000
   0.116400  324.160000
   0.116400  324.160000
K1
   0.100900  246.410000
   0.100900  246.410000
   0.100900  246.410000
   0.100900  246.410000
   0.100900  246.410000
   0.100900  246.410000
   0.100900  246.410000
   0.100900  246.410000
   0.100900  246.410000
   0.100691  246.209520
   0.100482  246.009039
   0.100273  245.808559
   0.100064  245.608078
   0.099830  245.384450
   0.099597  245.160822
   0.099364  244.937194
   0.099131  244.739243
   0.098866  244.583753
   0.098602  244.428264
   0.098338  244.272775
   0.098073  244.117291
   0.097809  243.961802
   0.097545  243.806313
   0.097242  243.628863
   0.096931  243.446941
   0.096662  243.289964
   0.096394  243.132987
   0.096126  242.976010
   0.095857  242.819027
   0.095552  242.640668
   0.095248  242.448424
   0.094943  242.253297
   0.094638  242.058169
   0.094391  241.898954
   0.094171  241.756266
   0.093952  241.613578
   0.093732  241.470891
   0.093523  241.340040
   0.093315  241.211399
   0.093040  241.040883
   0.092765  240.870366
   0.092505  240.709135
   0.092250  240.551248
   0.092064  240.445318
   0.091854  240.329470
   0.091655  240.220374
   0.091331  240.042253
   0.091051  239.887944
   0.090847  239.748956
   0.090666  239.617592
   0.090484  239.486225
   0.090295  239.348602
   0.090111  239.225412
   0.089904  239.098413
   0.089698  238.971413
   0.089455  238.824351
   0.089240  238.702698
   0.089014  238.574410
   0.088806  238.455515
   0.088514  238.286372
   0.088223  238.134952
   0.088061  238.057476
   0.087900  237.980000
   0.087700  237.860000
   0.087500  237.740000
   0.087315  237.658430
   0.087129  237.576859
   0.086891  237.462891
   0.086665  237.345047
   0.086416  237.215021
   0.086167  237.084996
   0.085914  236.965063
   0.085650  236.845000
   0.085425  236.742501
   0.085200  236.640000
   0.084975  236.540001
   0.084750  236.440000
   0.084525  236.340001
   0.084300  236.240000
   0.084050  236.160000
   0.083800  236.080000
   0.083521  235.990871
   0.083243  235.903454
   0.082950  235.818469
   0.082657  235.733483
   0.082359  235.647032
   0.082042  235.521137
   0.081650  235.355692
   0.081243  235.179242
   0.080819  234.988770
   0.080396  234.798448
   0.080100  234.676968
   0.079804  234.555489
   0.079519  234.438969
   0.079240  234.298575
   0.078981  234.150447
   0.078744  234.015198
   0.078521  233.867271
   0.078290  233.708021
   0.078026  233.526511
   0.077757  233.313105
   0.077518  233.101889
   0.077313  232.920372
   0.077093  232.741615
   0.076773  232.506679
   0.076509  232.313460
   0.076248  232.115415
   0.076013  231.916341
   0.075766  231.706406
   0.075519  231.496474
   0.075024  231.132473
   0.074500  230.750000
   0.074000  230.379998
   0.073500  230.009998
   0.073050  229.644998
   0.072600  229.280000
   0.072100  228.919998
   0.071600  228.559998
   0.071150  228.194998
   0.070700  227.830000
   0.070250  227.455000
   0.069753  227.043923
   0.069297  226.697740
   0.068800  226.320000
   0.068200  225.750000
   0.067600  225.180000
   0.066900  224.525000
   0.066200  223.870000
   0.065400  222.995000
   0.064600  222.120000
   0.063950  221.265000
   0.063300  220.410000
   0.062650  219.530000
   0.062000  218.650000
   0.061300  217.610000
   0.060600  216.570000
   0.059950  215.495000
   0.059300  214.420000
   0.058750  213.420000
   0.058200  212.420000
   0.057650  211.385000
   0.057100  210.350000
   0.056450  209.065000
   0.055800  207.780000
   0.055250  206.450000
   0.054700  205.120000
   0.054250  203.720000
   0.053800  202.320000
   0.053400  200.890000
   0.053000  199.460000
   0.052750  198.075000
   0.052500  196.690000
   0.052350  195.295000
   0.052200  193.900000
   0.052150  192.570000
   0.052100  191.240000
   0.052150  189.945000
   0.052200  188.650000
   0.052400  187.265000
   0.052600  185.880000
   0.052850  184.545000
   0.053100  183.210000
   0.053350  182.025000
   0.053600  180.840000
   0.053950  179.700000
   0.054300  178.560000
   0.054600  177.605000
   0.054900  176.650000
   0.055250  175.745000
   0.055600  174.840000
   0.055950  173.940000
   0.056300  173.040000
   0.056650  172.205000
   0.057000  171.370000
   0.057450  170.520000
   0.057900  169.670000
   0.058300  168.865000
   0.058700  168.060000
   0.059150  167.470000
   0.059600  166.880000
   0.059950  166.355000
   0.060300  165.830000
   0.060500  165.600000
   0.060700  165.370000
   0.060900  165.175000
   0.061100  164.980000
   0.061300  164.810000
   0.061500  164.640000
   0.061700  164.500000
   0.061900  164.380000
   0.062100  164.260000
   0.062300  164.140000
   0.062600  164.060000
   0.062800  163.970000
   0.063100  163.890000
   0.063400  163.830000
   0.063700  163.770000
   0.064000  163.710000
   0.064400  163.640000
   0.064700  163.560000
   0.065100  163.460000
   0.065500  163.320000
   0.065600  163.230000
   0.065800  163.090000
   0.066100  162.900000
   0.066300  162.670000
   0.066300  162.430000
   0.066300  162.130000
   0.066000  161.740000
   0.063600  160.710000
   0.061400  159.590000
   0.051400  151.210000
   0.041100  142.550000
   0.036100  133.330000
   0.034700  127.220000
   0.033300  120.180000
   0.032900  113.780000
   0.032400  106.980000
   0.032100   99.340000
   0.031800   90.780000
   0.031600   85.690000
   0.031300   80.750000
   0.030900   75.810000
   0.030600   70.870000
   0.030200   64.950000
   0.029700   58.660000
   0.029200   52.370000
   0.028300   45.710000
   0.026700   38.750000
   0.025100   31.970000
   0.023500   25.550000
   0.023500   25.550000
   0.023500   25.550000
   0.023500   25.550000
   0.023500   25.550000
   0.023500   25.550000
   0.023500   25.550000
   0.023500   25.550000
O1
   0.083700  235.450000
   0.083700  235.450000
   0.083700  235.450000
   0.083700  235.450000
   0.083700  235.450000
   0.083700  235.450000
   0.083700  235.450000
   0.083700  235.450000
   0.083700  235.450000
   0.083528  235.239680
   0.083356  235.029360
   0.083183  234.819040
   0.083011  234.608720
   0.082819  234.374116
   0.082627  234.139512
   0.082435  233.904909
   0.082247  233.698835
   0.082045  233.541791
   0.081843  233.384747
   0.081641  233.227703
   0.081438  233.070664
   0.081236  232.913620
   0.081034  232.756576
   0.080819  232.578863
   0.080601  232.396941
   0.080414  232.239964
   0.080226  232.082987
   0.080038  231.926010
   0.079850  231.769027
   0.079637  231.590668
   0.079423  231.403473
   0.079210  231.214444
   0.078996  231.025414
   0.078818  230.874419
   0.078653  230.742707
   0.078489  230.610996
   0.078324  230.479284
   0.078170  230.361864
   0.078018  230.247055
   0.077816  230.094874
   0.077614  229.942693
   0.077424  229.798798
   0.077237  229.657888
   0.077109  229.565502
   0.076969  229.465451
   0.076837  229.371232
   0.076621  229.217400
   0.076434  229.084134
   0.076266  228.966187
   0.076107  228.855207
   0.075949  228.744225
   0.075783  228.627957
   0.075624  228.526837
   0.075447  228.426419
   0.075269  228.326001
   0.075062  228.211141
   0.074883  228.121690
   0.074695  228.027360
   0.074506  227.944303
   0.074214  227.833485
   0.073923  227.736845
   0.073761  227.688423
   0.073600  227.640000
   0.073350  227.575000
   0.073100  227.510000
   0.072915  227.469215
   0.072729  227.428430
   0.072491  227.374483
   0.072265  227.321830
   0.072016  227.263733
   0.071767  227.205636
   0.071534  227.148567
   0.071300  227.090000
   0.071100  227.040000
   0.070900  226.990000
   0.070725  226.940000
   0.070550  226.890000
   0.070375  226.840000
   0.070200  226.790000
   0.070000  226.755000
   0.069800  226.720000
   0.069577  226.681006
   0.069354  226.641442
   0.069120  226.597484
   0.068885  226.553526
   0.068647  226.508810
   0.068428  226.422650
   0.068167  226.305097
   0.067906  226.173394
   0.067652  226.021016
   0.067398  225.868486
   0.067250  225.749969
   0.067102  225.631453
   0.066960  225.517774
   0.066809  225.380861
   0.066660  225.236436
   0.066525  225.104568
   0.066411  224.984048
   0.066295  224.859544
   0.066163  224.717636
   0.065977  224.555852
   0.065773  224.399143
   0.065597  224.264470
   0.065441  224.140119
   0.065263  223.990614
   0.065116  223.867656
   0.064961  223.743774
   0.064785  223.626671
   0.064600  223.503180
   0.064415  223.379690
   0.064114  223.155771
   0.063800  222.920000
   0.063500  222.689999
   0.063200  222.459999
   0.062900  222.239999
   0.062600  222.020000
   0.062300  221.819999
   0.062000  221.619999
   0.061700  221.424999
   0.061400  221.230000
   0.061100  221.035000
   0.060776  220.821012
   0.060549  220.638811
   0.060300  220.440000
   0.059850  220.145000
   0.059400  219.850000
   0.059000  219.500000
   0.058600  219.150000
   0.058050  218.680000
   0.057500  218.210000
   0.057000  217.740000
   0.056500  217.270000
   0.056050  216.775000
   0.055600  216.280000
   0.055050  215.685000
   0.054500  215.090000
   0.054000  214.465000
   0.053500  213.840000
   0.053050  213.245000
   0.052600  212.650000
   0.052150  212.035000
   0.051700  211.420000
   0.051200  210.645000
   0.050700  209.870000
   0.050250  209.060000
   0.049800  208.250000
   0.049350  207.385000
   0.048900  206.520000
   0.048500  205.630000
   0.048100  204.740000
   0.047800  203.850000
   0.047500  202.960000
   0.047200  202.050000
   0.046900  201.140000
   0.046600  200.235000
   0.046300  199.330000
   0.046100  198.415000
   0.045900  197.500000
   0.045750  196.500000
   0.045600  195.500000