 PRVI %StormName%
 %EnsembleID%
 1 20.0 1 20 100.0                      ! NFOVER - NONFATAL ERROR OVERRIDE OPTION
 0                                      ! NABOUT - ABREVIATED OUTPUT OPTION PARAMETER
 -1000                                  ! NSCREEN - SCREEN OUTPUT (0=NO SCREEN OUTPUT, 1=SCREEN OUTPUT)
 %IHOT%                                 ! IHOT - HOT START PARAM (0=COLD START, 1=HOT START)
 2                                      ! ICS - POLAR COORDINATE OPTION (1=CART COORDS, 2=POLAR COORDS)
 0                                      ! IM - MODEL TYPE (0=2DDI, 1=3DL VS, 2=3DL DSS)
 1                                      ! NOLIBF - nonlinear bottom friction
 2                                      ! NOLIFA - nonlinear finite amplitude
 1                                      ! NOLICA - nonlinear advec (spat grads)
 1                                      ! NOLICAT - nonlinear advec (time derivs)
 4                                      ! NWP - VARIABLE BOTTOM FRICTION AND LATERAL VISCOSITY OPTION PARAMETER
 mannings_n_at_sea_floor
 primitive_weighting_in_continuity_equation
 advection_state
 surface_directional_effective_roughness_length
 1                                     ! NCOR - VARIABLE CORIOLIS IN SPACE OPTION PARAMETER
 1                                     ! NTIP - TIDAL POTENTIAL OPTION PARAMETER
 %NWS%                                 ! NWS - WIND STRESS AND BAROMETRIC PRESSURE OPTION PARAMETER
 1                                     ! NRAMP - RAMP FUNCTION OPTION (0=NO, 1=YES)
 9.81                                  ! G - ACCELERATION DUE TO GRAVITY - DETERMINES UNITS
 -3                                    ! TAU0 - WEIGHTING FACTOR IN GWCE
 %DT%                                  ! DT - TIME STEP (IN SECONDS)
 0.0                                   ! STATIM - STARTING TIME
 0.0                                   ! REFTIME - STARTING REFERENCE TIME (IN DAYS)
 %WTIMINC%                             ! WTIMINC - met data time increment, Geofactor=1 for NWS=20
 %RNDAY%                               ! RNDAY - TOTAL LENGTH OF SIMULATION (IN DAYS)
 5.0                                   ! DRAMP - TIME CONSTANT FOR RAMP FUNCTION
 0.35 0.30 0.35                        ! TIME WEIGHTING FACTORS FOR THE GWCE EQUATION
 0.05 10 10 0.05                       ! H0, NODEDRYMIN, NODEWETMIN, VELMIN
 0.0 0.0                               ! SLAM0, SFEA0 - LONG. AND LAT. WHERE CPP IS CENTERED
 0.0025 0 0 0                          ! Cf
 5                                     ! ESL - LATERAL EDDY VISCOSITY COEFFICIENT; IGNORED IF NWP =1
 0.0                                   ! CORI - CORIOLIS PARAMETER - IGNORED IF NCOR = 1
8                                      ! NTIF - TOTAL NUMBER OF TIDAL POTENTIAL CONSTITUENTS BEING FORCED
M2
0.242334 0.000140518902760747 0.693  %M2NF%  %M2EQARG%
O1
0.100514 0.000067597744073203 0.695  %O1NF%  %O1EQARG%
S2
0.112841 0.000145444104274683 0.693  %S2NF%  %S2EQARG%
N2
0.046398 0.000137879699816218 0.693  %N2NF%  %N2EQARG%
K2
0.030704 0.000145842317026022 0.693  %K2NF%  %K2EQARG%
K1
0.141565 0.000072921158513011 0.736  %K1NF%  %K1EQARG%
Q1
0.019256 0.000064958541303207 0.695  %Q1NF%  %Q1EQARG%
P1
0.046843 0.000072522945761672 0.706  %P1NF%  %P1EQARG%
8   ! NBFR - TOTAL NUMBER OF FORCING FREQUENCIES ON OPEN BOUNDARIES
M2
0.000140518902760747  %M2NF%  %M2EQARG%
O1
0.000067597744073203  %O1NF%  %O1EQARG%
S2
0.000145444104274683  %S2NF%  %S2EQARG%
N2
0.000137879699816218  %N2NF%  %N2EQARG%
K2
0.000145842317026022  %K2NF%  %K2EQARG%
K1
0.000072921158513011  %K1NF%  %K1EQARG%
Q1
0.000064958541303207  %Q1NF%  %Q1EQARG%
P1
0.000072522945761672  %P1NF%  %P1EQARG%
M2
0.84072 -133.83
0.82652 -134.1
0.81161 -134.39
0.79715 -134.67
0.78311 -134.94
0.76956 -135.21
0.75645 -135.47
0.74377 -135.72
0.73157 -135.97
0.71983 -136.21
0.70852 -136.45
0.69769 -136.67
0.68732 -136.9
0.67738 -137.15
0.66793 -137.37
0.65893 -137.56
0.65038 -137.74
0.64231 -137.9
0.63469 -138.03
0.62753 -138.14
0.62078 -138.22
0.61469 -138.29
0.60903 -138.34
0.60377 -138.38
0.59898 -138.4
0.59464 -138.41
0.59072 -138.39
0.5872 -138.36
0.58389 -138.31
0.58178 -138.25
0.58004 -138.2
0.57843 -138.16
0.57698 -138.13
0.5758 -138.11
0.57463 -138.1
0.57344 -138.09
0.5722 -138.08
0.57089 -138.07
0.56955 -138.06
0.56821 -138.05
0.56685 -138.03
0.56544 -138.01
0.56402 -137.99
0.56262 -137.97
0.56121 -137.96
0.55977 -137.94
0.55828 -137.92
0.55678 -137.9
0.55528 -137.88
0.55377 -137.86
0.55221 -137.84
0.55061 -137.81
0.549 -137.79
0.54739 -137.76
0.5458 -137.74
0.54423 -137.71
0.54272 -137.69
0.54123 -137.66
0.53975 -137.64
0.53825 -137.61
0.53675 -137.59
0.53525 -137.56
0.53375 -137.54
0.53225 -137.51
0.53075 -137.49
0.52925 -137.46
0.52775 -137.43
0.52625 -137.4
0.52475 -137.37
0.52325 -137.34
0.52175 -137.3
0.52023 -137.27
0.51872 -137.23
0.51723 -137.2
0.51579 -137.17
0.51439 -137.13
0.513 -137.1
0.51161 -137.07
0.51019 -137.03
0.50874 -137
0.50727 -136.97
0.50581 -136.93
0.50439 -136.9
0.503 -136.87
0.50161 -136.83
0.50019 -136.8
0.49873 -136.76
0.49727 -136.72
0.49581 -136.68
0.49439 -136.64
0.493 -136.61
0.49161 -136.57
0.49019 -136.53
0.48873 -136.5
0.48727 -136.46
0.48581 -136.42
0.48439 -136.38
0.48298 -136.34
0.48158 -136.3
0.48019 -136.26
0.47881 -136.21
0.47742 -136.17
0.476 -136.13
0.47458 -136.09
0.47319 -136.04
0.47181 -136
0.47042 -135.96
0.46901 -135.92
0.46763 -135.87
0.4662 -135.83
0.46473 -135.78
0.46326 -135.73
0.4618 -135.68
0.4604 -135.63
0.45901 -135.58
0.45761 -135.52
0.45619 -135.47
0.45477 -135.43
0.45327 -135.38
0.45173 -135.32
0.45023 -135.27
0.44878 -135.22
0.4474 -135.18
0.44601 -135.13
0.44461 -135.08
0.4432 -135.03
0.44176 -134.98
0.44027 -134.93
0.43878 -134.87
0.43726 -134.82
0.43575 -134.76
0.43425 -134.7
0.43274 -134.64
0.43124 -134.58
0.42976 -134.52
0.42826 -134.46
0.42677 -134.4
0.42528 -134.34
0.42376 -134.28
0.4222 -134.22
0.4206 -134.16
0.41901 -134.1
0.41739 -134.03
0.41579 -133.97
0.41423 -133.9
0.41272 -133.83
0.41123 -133.77
0.40975 -133.7
0.40825 -133.64
0.40677 -133.57
0.40528 -133.5
0.40376 -133.43
0.4022 -133.36
0.4006 -133.29
0.39901 -133.22
0.39739 -133.14
0.3958 -133.06
0.39424 -132.99
0.39273 -132.91
0.39126 -132.84
0.38976 -132.76
0.38821 -132.68
0.38662 -132.6
0.38502 -132.53
0.38342 -132.45
0.38181 -132.36
0.38019 -132.27
0.37858 -132.19
0.37698 -132.1
0.37539 -132.02
0.37381 -131.93
0.37227 -131.84
0.37073 -131.76
0.36918 -131.68
0.36763 -131.59
0.36602 -131.5
0.36443 -131.41
0.36281 -131.31
0.36121 -131.2
0.35961 -131.1
0.358 -131
0.35634 -130.9
0.35465 -130.8
0.353 -130.7
0.35139 -130.61
0.34979 -130.5
0.34821 -130.4
0.34661 -130.29
0.345 -130.18
0.34336 -130.06
0.34169 -129.95
0.34 -129.83
0.33833 -129.71
0.33667 -129.59
0.335 -129.48
0.33333 -129.36
0.33167 -129.24
0.33 -129.12
0.32833 -128.99
0.32667 -128.87
0.325 -128.74
0.32334 -128.62
0.32169 -128.49
0.31999 -128.35
0.31832 -128.22
0.31667 -128.08
0.315 -127.95
0.31333 -127.81
0.3117 -127.66
0.31008 -127.52
0.30845 -127.38
0.30675 -127.23
0.30492 -127.08
0.30288 -126.93
0.30065 -126.77
0.29826 -126.6
0.29581 -126.43
0.2934 -126.26
0.29108 -126.08
0.28892 -125.9
0.28693 -125.72
0.28507 -125.55
0.28331 -125.37
0.28161 -125.2
0.27994 -125.03
0.27831 -124.86
0.27668 -124.69
0.27499 -124.52
0.27332 -124.34
0.27169 -124.17
0.27003 -123.98
0.26833 -123.79
0.26661 -123.6
0.26488 -123.41
0.26312 -123.21
0.26137 -123
0.25964 -122.8
0.25797 -122.6
0.25637 -122.4
0.25479 -122.21
0.25319 -122.01
0.25158 -121.8
0.25 -121.59
0.24842 -121.38
0.24681 -121.17
0.24521 -120.95
0.24361 -120.72
0.242 -120.49
0.24036 -120.26
0.23864 -120.02
0.23698 -119.78
0.23536 -119.53
0.2338 -119.28
0.23227 -119.03
0.23073 -118.78
0.22919 -118.52
0.22761 -118.26
0.226 -118
0.22439 -117.74
0.22279 -117.48
0.22123 -117.21
0.21972 -116.94
0.21822 -116.66
0.21672 -116.38
0.21523 -116.1
0.21379 -115.8
0.21239 -115.51
0.211 -115.21
0.20961 -114.91
0.20819 -114.61
0.20673 -114.3
0.20525 -114
0.20379 -113.69
0.20237 -113.39
0.20098 -113.06
0.19967 -112.74
0.19835 -112.41
0.19699 -112.07
0.19561 -111.73
0.19421 -111.38
0.19281 -111.03
0.19141 -110.66
0.19001 -110.29
0.18858 -109.91
0.1872 -109.52
0.1858 -109.11
0.18441 -108.69
0.183 -108.26
0.18156 -107.82
0.18019 -107.39
0.1788 -106.94
0.17738 -106.48
0.176 -106.01
0.17464 -105.55
0.1733 -105.08
0.17196 -104.59
0.17066 -104.1
0.16939 -103.59
0.16813 -103.07
0.16688 -102.53
0.16559 -101.96
0.1643 -101.39
0.16298 -100.81
0.16165 -100.22
0.16035 -99.615
0.15917 -99.013
0.15805 -98.412
0.15693 -97.809
0.15576 -97.194
0.15458 -96.561
0.15338 -95.927
0.15218 -95.267
0.15104 -94.594
0.14995 -93.895
0.14895 -93.184
0.14798 -92.461
0.147 -91.717
0.146 -90.965
0.14499 -90.205
0.14396 -89.424
0.14296 -88.637
0.14202 -87.83
0.14117 -87.013
0.14036 -86.184
0.13955 -85.342
0.13876 -84.474
0.13797 -83.576
0.13718 -82.675
0.13638 -81.743
0.1356 -80.779
0.13493 -79.798
0.13433 -78.802
0.13377 -77.796
0.13322 -76.768
0.13266 -75.725
0.13218 -74.684
0.13178 -73.653
0.13142 -72.637
0.13109 -71.621
0.13078 -70.601
0.13053 -69.605
0.13032 -68.583
0.13015 -67.573
0.13001 -66.544
0.1299 -65.493
0.1299 -64.436
0.12999 -63.376
0.13013 -62.317
0.13033 -61.246
0.13061 -60.166
0.13094 -59.093
0.13128 -58.028
0.13163 -56.956
0.13198 -55.895
0.13234 -54.831
0.13273 -53.781
0.13319 -52.733
0.13375 -51.703
0.13439 -50.694
0.13508 -49.691
0.13578 -48.708
0.13653 -47.729
0.13732 -46.766
0.13815 -45.809
0.13902 -44.869
0.13995 -43.933
0.14095 -43.01
0.14196 -42.099
0.14296 -41.179
0.14395 -40.281
0.14502 -39.385
0.14615 -38.503
0.14732 -37.63
0.14855 -36.77
0.14982 -35.937
0.15109 -35.135
0.15237 -34.353
0.15365 -33.586
0.15495 -32.847
0.15634 -32.104
0.15778 -31.372
0.15921 -30.648
0.16068 -29.924
0.16221 -29.209
0.16377 -28.499
0.16536 -27.799
0.16697 -27.127
0.16864 -26.463
0.17031 -25.822
0.17199 -25.206
0.17366 -24.605
0.17532 -24.022
0.17698 -23.456
0.17867 -22.912
0.18039 -22.38
0.18213 -21.866
0.18387 -21.376
0.18561 -20.898
0.18732 -20.438
0.189 -19.992
0.19069 -19.517
0.19239 -19.07
0.19413 -18.641
0.19588 -18.237
0.1976 -17.856
0.19933 -17.491
0.20103 -17.135
0.20269 -16.772
0.20433 -16.417
0.206 -16.07
0.2077 -15.727
0.20936 -15.403
0.211 -15.095
0.21261 -14.797
0.21421 -14.497
0.21581 -14.195
0.21742 -13.906
0.219 -13.628
0.22057 -13.358
0.22218 -13.095
0.2238 -12.829
0.2254 -12.571
0.227 -12.332
0.22865 -12.095
0.23035 -11.857
0.23202 -11.627
0.23364 -11.407
0.23522 -11.195
0.23677 -10.994
0.23829 -10.795
0.23977 -10.606
0.24125 -10.429
0.24275 -10.258
0.24424 -10.095
0.24575 -9.9334
0.24725 -9.7738
0.24876 -9.6177
0.25025 -9.4735
0.25177 -9.3339
0.25328 -9.1969
0.25477 -9.0636
0.25621 -8.9358
0.25762 -8.7981
0.25902 -8.6585
0.26043 -8.5287
0.26185 -8.4056
0.26321 -8.2914
0.26454 -8.192
0.26588 -8.1067
0.26715 -8.0327
0.2684 -7.9615
0.26969 -7.886
0.271 -7.812
0.27231 -7.7331
0.27361 -7.6594
0.2749 -7.599
0.27618 -7.5352
0.27742 -7.4639
0.27861 -7.3959
0.27979 -7.3307
0.28101 -7.2711
0.28224 -7.2308
0.28344 -7.1959
0.28462 -7.1636
0.28578 -7.1353
0.28692 -7.0991
0.28808 -7.0592
0.28923 -7.0329
0.2904 -7.012
0.29162 -6.9862
0.29283 -6.961
0.29398 -6.9324
0.29505 -6.9071
0.29604 -6.8951
0.29702 -6.8969
0.298 -6.9
0.299 -6.9
0.3 -6.9
0.301 -6.9
0.302 -6.8969
0.30299 -6.8951
0.304 -6.9071
0.305 -6.9325
0.306 -6.9609
0.30699 -6.9863
0.308 -7.013
0.309 -7.0379
0.31 -7.0621
0.311 -7.0866
0.31199 -7.1094
0.313 -7.1326
0.314 -7.1729
0.31501 -7.2221
0.316 -7.2643
0.31701 -7.2987
0.31805 -7.331
0.31905 -7.372
0.31997 -7.4306
0.32083 -7.499
0.32161 -7.5643
0.32239 -7.6231
0.32318 -7.6773
0.32402 -7.7347
0.32495 -7.7958
0.32597 -7.8589
0.32703 -7.9328
0.32805 -8.0119
0.32898 -8.0861
0.32982 -8.1611
0.33061 -8.2325
0.33139 -8.307
0.33218 -8.3952
0.33304 -8.4972
0.33399 -8.5997
0.33501 -8.7002
0.33596 -8.7998
0.33682 -8.9003
0.33761 -8.9996
0.33838 -9.1
0.33918 -9.2003
0.34002 -9.2963
0.34095 -9.3954
0.34195 -9.5078
0.343 -9.6341
0.34405 -9.7661
0.34505 -9.8885
0.34598 -10
0.34682 -10.111
0.34761 -10.233
0.34838 -10.361
0.34918 -10.486
0.35003 -10.612
0.35095 -10.732
0.35196 -10.86
0.35298 -11
0.354 -11.14
0.35499 -11.268
0.35596 -11.388
0.35694 -11.512
0.35802 -11.633
0.35918 -11.76
0.36038 -11.899
0.36162 -12.036
0.36283 -12.164
0.36398 -12.3
0.36504 -12.433
0.36603 -12.565
0.36697 -12.699
0.36795 -12.832
0.36902 -12.967
0.37018 -13.111
0.37138 -13.241
0.37259 -13.37
0.37377 -13.501
0.37492 -13.63
0.37608 -13.76
0.37724 -13.89
0.3784 -14.015
0.37959 -14.139
0.38077 -14.261
0.38192 -14.387
0.38307 -14.516
0.38421 -14.646
0.38535 -14.768
0.38655 -14.884
0.38785 -14.998
0.38916 -15.105
0.39045 -15.205
0.39164 -15.301
0.39277 -15.399
0.39393 -15.5
0.39509 -15.6
0.39626 -15.701
0.39742 -15.801
0.39863 -15.904
0.39982 -16.006
0.40096 -16.104
0.40205 -16.197
0.40308 -16.284
0.40408 -16.368
0.40504 -16.445
0.40596 -16.519
0.4068 -16.591
0.40762 -16.664
0.40843 -16.735
0.40925 -16.801
0.41009 -16.863
0.41095 -16.921
0.41181 -16.982
0.41263 -17.043
0.41336 -17.103
0.41402 -17.161
0.4147 -17.22
0.41539 -17.276
0.4161 -17.328
0.41683 -17.376
0.41759 -17.426
0.41832 -17.476
0.41949 -17.529
0.42134 -17.593
0.42311 -17.659
0.42513 -17.711
0.42749 -17.742
0.43036 -17.752
0.43381 -17.703
0.43776 -17.558
0.4418 -17.319
0.44604 -16.962
0.45049 -16.483
0.45488 -15.949
0.4596 -15.379
0.46426 -14.799
0.46855 -14.2
0.47262 -13.607
0.4764 -13.136
0.48001 -12.772
0.48351 -12.508
0.48662 -12.343
0.48948 -12.251
0.49199 -12.207
0.49412 -12.21
0.49602 -12.247
0.49772 -12.298
0.49932 -12.34
0.50087 -12.361
0.50243 -12.365
0.50393 -12.356
0.50539 -12.338
0.50674 -12.315
0.50783 -12.299
0.50874 -12.299
0.50936 -12.312
0.50974 -12.332
0.50994 -12.35
0.51003 -12.369
0.51006 -12.393
0.51005 -12.423
0.51001 -12.458
0.51 -12.497
0.51 -12.548
0.51001 -12.605
0.51003 -12.666
0.51006 -12.732
0.51004 -12.807
0.50997 -12.898
0.50984 -13.008
0.50967 -13.129
0.50944 -13.261
0.50917 -13.392
0.50887 -13.533
0.50863 -13.668
0.50843 -13.796
0.5082 -13.93
0.50791 -14.061
0.50757 -14.197
0.50722 -14.334
0.50683 -14.481
0.50634 -14.637
0.50579 -14.797
0.50527 -14.956
0.50471 -15.119
0.50401 -15.28
0.50319 -15.439
0.50232 -15.589
0.50136 -15.738
0.5003 -15.887
0.49914 -16.035
O1
0.084 -123.99
0.083708 -124.1
0.083391 -124.21
0.083074 -124.32
0.082757 -124.43
0.082441 -124.54
0.082128 -124.64
0.081817 -124.74
0.08151 -124.83
0.081207 -124.93
0.080909 -125.01
0.080617 -125.1
0.080332 -125.18
0.080053 -125.26
0.079783 -125.33
0.079522 -125.41
0.07927 -125.47
0.079029 -125.54
0.078799 -125.6
0.07858 -125.66
0.078374 -125.71
0.07818 -125.76
0.078 -125.81
0.077829 -125.85
0.077662 -125.89
0.077498 -125.93
0.077337 -125.97
0.07718 -126
0.077026 -126.03
0.076874 -126.06
0.076726 -126.09
0.076581 -126.11
0.076438 -126.14
0.076299 -126.16
0.076162 -126.18
0.076027 -126.2
0.075896 -126.22
0.075766 -126.23
0.075639 -126.25
0.075514 -126.26
0.075391 -126.27
0.07527 -126.28
0.075151 -126.29
0.075033 -126.3
0.074917 -126.31
0.074804 -126.32
0.074692 -126.33
0.074581 -126.35
0.074473 -126.36
0.074365 -126.37
0.074259 -126.39
0.074155 -126.4
0.074052 -126.41
0.073949 -126.43
0.073848 -126.44
0.073748 -126.45
0.073649 -126.47
0.073551 -126.48
0.073453 -126.49
0.073356 -126.51
0.07326 -126.52
0.073164 -126.53
0.073067 -126.55
0.072972 -126.56
0.072877 -126.57
0.072781 -126.59
0.072686 -126.6
0.072591 -126.61
0.072496 -126.63
0.072401 -126.64
0.072305 -126.66
0.072209 -126.67
0.072113 -126.68
0.072016 -126.7
0.071918 -126.71
0.071821 -126.73
0.071722 -126.74
0.071622 -126.76
0.071521 -126.77
0.07142 -126.79
0.071317 -126.8
0.071213 -126.81
0.071107 -126.83
0.071 -126.84
0.070893 -126.86
0.070785 -126.87
0.070679 -126.89
0.070572 -126.9
0.070466 -126.92
0.07036 -126.93
0.070255 -126.95
0.070151 -126.96
0.070046 -126.98
0.069942 -126.99
0.069838 -127.01
0.069735 -127.02
0.069631 -127.04
0.069528 -127.05
0.069426 -127.07
0.069324 -127.08
0.069222 -127.1
0.06912 -127.11
0.069018 -127.13
0.068917 -127.15
0.068815 -127.16
0.068714 -127.18
0.068613 -127.19
0.068512 -127.21
0.068414 -127.22
0.068313 -127.24
0.068213 -127.26
0.068113 -127.27
0.068013 -127.29
0.067915 -127.31
0.067816 -127.32
0.067716 -127.34
0.067617 -127.36
0.06752 -127.37
0.067421 -127.39
0.067323 -127.41
0.067224 -127.42
0.067126 -127.44
0.06703 -127.46
0.066931 -127.47
0.066833 -127.49
0.066735 -127.51
0.066637 -127.52
0.06654 -127.54
0.066444 -127.56
0.066346 -127.58
0.066249 -127.59
0.066151 -127.61
0.066053 -127.63
0.065956 -127.65
0.065861 -127.66
0.065763 -127.68
0.065666 -127.7
0.065568 -127.72
0.065471 -127.73
0.065373 -127.75
0.065276 -127.77
0.065181 -127.79
0.065083 -127.81
0.064985 -127.83
0.064888 -127.84
0.06479 -127.86
0.064692 -127.88
0.064595 -127.9
0.064497 -127.92
0.064399 -127.94
0.064301 -127.96
0.064202 -127.98
0.064104 -128
0.064006 -128.02
0.063909 -128.04
0.06381 -128.06
0.063711 -128.08
0.063612 -128.1
0.063513 -128.12
0.063414 -128.14
0.063314 -128.17
0.063214 -128.19
0.063115 -128.21
0.063014 -128.23
0.062914 -128.25
0.062813 -128.28
0.062713 -128.3
0.062612 -128.32
0.06251 -128.34
0.062409 -128.37
0.062307 -128.39
0.062205 -128.41
0.062103 -128.43
0.062 -128.45
0.061899 -128.48
0.061796 -128.5
0.061692 -128.52
0.061589 -128.54
0.061484 -128.57
0.06138 -128.59
0.061275 -128.61
0.06117 -128.64
0.061065 -128.66
0.060959 -128.69
0.060854 -128.71
0.060748 -128.74
0.060641 -128.76
0.060535 -128.78
0.060428 -128.81
0.060321 -128.84
0.060214 -128.86
0.060107 -128.89
0.059999 -128.91
0.059891 -128.94
0.059783 -128.96
0.059675 -128.99
0.059567 -129.02
0.059459 -129.04
0.05935 -129.07
0.059241 -129.1
0.059132 -129.13
0.059023 -129.15
0.058914 -129.18
0.058802 -129.21
0.058693 -129.24
0.058583 -129.27
0.058474 -129.3
0.058364 -129.33
0.058254 -129.36
0.058144 -129.38
0.058034 -129.41
0.057924 -129.44
0.057814 -129.48
0.057703 -129.51
0.057593 -129.54
0.057483 -129.57
0.057372 -129.6
0.057262 -129.63
0.057152 -129.67
0.057041 -129.7
0.056931 -129.73
0.05682 -129.76
0.05671 -129.8
0.056599 -129.83
0.056489 -129.87
0.056378 -129.9
0.056268 -129.93
0.056155 -129.97
0.056045 -130
0.055935 -130.03
0.055825 -130.06
0.055714 -130.1
0.055604 -130.13
0.055494 -130.17
0.055384 -130.2
0.055275 -130.23
0.055165 -130.27
0.055055 -130.3
0.054946 -130.34
0.054836 -130.37
0.054727 -130.41
0.054618 -130.44
0.054509 -130.48
0.0544 -130.52
0.054291 -130.55
0.054183 -130.59
0.054074 -130.63
0.053966 -130.67
0.053858 -130.7
0.053748 -130.74
0.05364 -130.78
0.053533 -130.82
0.053426 -130.86
0.053318 -130.9
0.053212 -130.94
0.053105 -130.98
0.052999 -131.02
0.052892 -131.06
0.052787 -131.1
0.052681 -131.14
0.052575 -131.18
0.05247 -131.23
0.052365 -131.27
0.052261 -131.31
0.052157 -131.36
0.052053 -131.4
0.051949 -131.44
0.051845 -131.49
0.051742 -131.53
0.05164 -131.58
0.051537 -131.62
0.051435 -131.66
0.051335 -131.71
0.051236 -131.75
0.051135 -131.8
0.051036 -131.84
0.050936 -131.89
0.050834 -131.93
0.050734 -131.98
0.050633 -132.03
0.050532 -132.08
0.050429 -132.13
0.050329 -132.18
0.050228 -132.23
0.050127 -132.28
0.050024 -132.33
0.049922 -132.39
0.04982 -132.44
0.049717 -132.5
0.049616 -132.55
0.049514 -132.61
0.04941 -132.66
0.049307 -132.72
0.049205 -132.78
0.049103 -132.84
0.049 -132.9
0.048898 -132.96
0.048796 -133.02
0.048695 -133.08
0.048593 -133.14
0.04849 -133.21
0.04839 -133.27
0.048288 -133.34
0.048187 -133.4
0.048085 -133.47
0.047984 -133.54
0.047883 -133.61
0.047783 -133.68
0.047681 -133.76
0.047579 -133.83
0.047478 -133.9
0.047377 -133.98
0.047276 -134.05
0.047174 -134.13
0.047072 -134.21
0.04697 -134.29
0.046867 -134.37
0.046765 -134.45
0.046663 -134.53
0.046559 -134.61
0.046456 -134.69
0.046351 -134.78
0.046247 -134.86
0.046142 -134.95
0.046038 -135.04
0.045932 -135.13
0.045824 -135.22
0.045718 -135.31
0.045611 -135.4
0.045501 -135.5
0.045392 -135.59
0.045282 -135.69
0.045172 -135.79
0.04506 -135.89
0.044946 -136
0.044831 -136.1
0.044717 -136.21
0.044601 -136.32
0.044484 -136.43
0.044364 -136.54
0.044245 -136.66
0.044122 -136.77
0.044 -136.89
0.043875 -137.01
0.043747 -137.13
0.043617 -137.26
0.043486 -137.38
0.043354 -137.51
0.043219 -137.63
0.043081 -137.77
0.042941 -137.9
0.042801 -138.03
0.042658 -138.17
0.042513 -138.3
0.042367 -138.44
0.042219 -138.58
0.042068 -138.73
0.041917 -138.87
0.041766 -139.02
0.041612 -139.16
0.041458 -139.31
0.041301 -139.47
0.041145 -139.62
0.040986 -139.78
0.040827 -139.94
0.040666 -140.1
0.040506 -140.27
0.040346 -140.44
0.040182 -140.61
0.040021 -140.78
0.039858 -140.96
0.039696 -141.14
0.039533 -141.32
0.03937 -141.51
0.039207 -141.7
0.039045 -141.89
0.038883 -142.09
0.038721 -142.29
0.038562 -142.49
0.038401 -142.69
0.038243 -142.9
0.038086 -143.11
0.03793 -143.33
0.037776 -143.55
0.037623 -143.77
0.037471 -143.99
0.037324 -144.22
0.037176 -144.45
0.037032 -144.69
0.036891 -144.93
0.036752 -145.17
0.036616 -145.42
0.036483 -145.67
0.036357 -145.92
0.036233 -146.17
0.036113 -146.43
0.036 -146.68
0.035887 -146.95
0.035772 -147.21
0.035657 -147.47
0.035539 -147.7
0.035422 -148
0.035303 -148.3
0.035186 -148.5
0.035068 -148.8
0.03495 -149.1
0.034833 -149.4
0.034716 -149.7
0.034602 -149.9
0.034489 -150.2
0.034377 -150.5
0.034269 -150.8
0.034162 -151.1
0.034059 -151.4
0.033958 -151.7
0.033861 -152
0.033768 -152.3
0.033678 -152.6
0.033593 -152.9
0.033512 -153.2
0.033435 -153.5
0.033364 -153.8
0.0333 -154.1
0.03324 -154.4
0.033186 -154.7
0.033138 -155.1
0.033097 -155.4
0.033063 -155.7
0.033036 -156
0.033016 -156.3
0.033004 -156.7
0.033 -157
0.033 -157.3
0.033 -157.6
0.033 -158
0.033 -158.3
0.033 -158.6
0.033 -158.9
0.033 -159.3
0.033 -159.6
0.033 -159.9
0.033 -160.3
0.033 -160.6
0.033 -160.9
0.033 -161.3
0.033 -161.6
0.033 -161.9
0.033 -162.3
0.033 -162.6
0.033 -163
0.033 -163.3
0.033 -163.6
0.033 -164
0.033 -164.3
0.033 -164.6
0.033 -165
0.033 -165.3
0.033 -165.6
0.033 -166
0.033 -166.3
0.033 -166.6
0.033 -167
0.033 -167.3
0.033 -167.6
0.033 -168
0.033 -168.3
0.033 -168.6
0.033 -168.9
0.033 -169.3
0.033 -169.6
0.033 -169.9
0.033 -170.2
0.033 -170.6
0.033015 -170.9
0.033057 -171.2
0.033122 -171.5
0.033206 -171.8
0.033306 -172.1
0.033417 -172.4
0.033534 -172.8
0.033655 -173.1
0.033777 -173.4
0.033893 -173.7
0.034 -174
0.034102 -174.3
0.034206 -174.6
0.034313 -174.9
0.034422 -175.1
0.034533 -175.4
0.034644 -175.7
0.034758 -176
0.034874 -176.3
0.034991 -176.6
0.035109 -176.8
0.035227 -177.1
0.035349 -177.4
0.03547 -177.6
0.035593 -177.9
0.035718 -178.1
0.035843 -178.4
0.03597 -178.7
0.036096 -178.9
0.036224 -179.2
0.036352 -179.4
0.03648 -179.6
0.03661 -179.9
0.036739 179.9
0.036869 179.7
0.037 179.4
0.037131 179.2
0.037262 179
0.037393 178.8
0.037525 178.5
0.037657 178.3
0.03779 178.1
0.037922 177.9
0.038057 177.7
0.038191 177.5
0.038328 177.3
0.038465 177.1
0.038603 176.9
0.038743 176.7
0.038883 176.5
0.039024 176.4
0.039167 176.2
0.03931 176
0.039456 175.8
0.039602 175.7
0.039749 175.5
0.039899 175.4
0.040051 175.2
0.040204 175
0.040358 174.9
0.040516 174.8
0.040675 174.6
0.040835 174.5
0.041 174.3
0.041165 174.2
0.041332 174.1
0.041502 174
0.041675 173.8
0.041849 173.7
0.042027 173.6
0.042206 173.5
0.042387 173.4
0.042569 173.3
0.042755 173.2
0.042944 173.1
0.043134 173
0.043325 172.9
0.043519 172.8
0.043716 172.8
0.043913 172.7
0.044114 172.6
0.044316 172.5
0.04452 172.5
0.044727 172.4
0.044934 172.3
0.045143 172.3
0.045354 172.2
0.045568 172.1
0.045781 172.1
0.046 172
0.04622 172
0.046443 171.9
0.046673 171.9
0.046906 171.8
0.047143 171.8
0.047381 171.7
0.047624 171.7
0.04787 171.6
0.048116 171.6
0.048362 171.5
0.048604 171.5
0.048846 171.5
0.049083 171.4
0.049319 171.4
0.049553 171.3
0.049782 171.3
0.050012 171.2
0.050236 171.2
0.050458 171.1
0.050673 171.1
0.050889 171
0.051099 170.9
0.051305 170.9
0.051511 170.8
0.05171 170.7
0.051906 170.6
0.052099 170.5
0.052287 170.4
0.052469 170.3
0.05265 170.2
0.052827 170
0.053 169.8
0.053196 169.6
0.053423 169.4
0.053641 169.2
0.053825 168.9
0.053954 168.5
0.054 168.1
0.053918 167.5
0.0537 166.9
0.053382 166.1
0.053 165.6
0.052224 166.1
0.05087 167.1
0.049013 169.1
0.046751 171.8
0.044312 174.8
0.041677 178
0.039 -178.8
0.035268 -170.6
0.030341 -169.7
0.025831 -166.8
0.023 -163
0.021559 -158.4
0.020252 -153.4
0.019039 -149.8
0.017956 -147.8
0.016998 -145.1
0.016134 -142.5
0.015368 -140
0.014722 -137.4
0.01419 -134.2
0.013753 -129.7
0.013422 -124.8
0.013185 -118.9
0.013043 -112.5
0.013 -106.3
0.013079 -99.7
0.013296 -93.4
0.013643 -87.1
0.01409 -80.6
0.014637 -74.2
0.015251 -68.8
0.015943 -64.1
0.016703 -60.1
0.017491 -56.5
0.018329 -53.3
0.019171 -50.7
0.020046 -48.7
0.020948 -47.1
0.021829 -45.6
0.022723 -44.1
0.023625 -42.9
0.024488 -41.7
0.025347 -40.7
0.026159 -39.8
0.027 -39
0.027824 -38.3
0.02866 -37.7
0.029594 -37.1
0.030529 -36.6
0.031507 -36.1
0.032472 -35.7
0.033471 -35.3
0.034502 -34.8
0.035563 -34.4
0.036589 -34
0.037636 -33.6
0.038704 -33.2
0.03979 -32.9
0.040826 -32.7
0.041874 -32.5
0.042933 -32.6
0.044 -32.9
S2
0.27415 -111
0.26947 -111.12
0.26456 -111.24
0.25979 -111.36
0.25516 -111.47
0.25069 -111.58
0.24635 -111.68
0.24215 -111.78
0.23811 -111.88
0.23421 -111.97
0.23044 -112.06
0.22682 -112.15
0.22335 -112.23
0.22001 -112.3
0.21682 -112.38
0.21378 -112.45
0.21086 -112.51
0.2081 -112.57
0.20547 -112.63
0.20298 -112.68
0.20062 -112.73
0.19839 -112.78
0.19631 -112.82
0.19439 -112.86
0.19271 -112.89
0.19124 -112.92
0.18984 -112.95
0.18851 -112.97
0.18729 -112.99
0.18618 -113.01
0.18518 -113.02
0.1843 -113.04
0.18363 -113.05
0.18309 -113.04
0.18256 -113.02
0.18204 -113
0.18159 -112.98
0.18125 -112.96
0.18088 -112.93
0.18047 -112.91
0.18003 -112.88
0.17959 -112.86
0.17914 -112.83
0.17868 -112.8
0.17822 -112.78
0.17774 -112.75
0.17725 -112.72
0.17675 -112.69
0.17626 -112.66
0.17579 -112.63
0.17532 -112.6
0.17487 -112.57
0.17444 -112.53
0.174 -112.5
0.17357 -112.47
0.17313 -112.44
0.17268 -112.4
0.17223 -112.37
0.17176 -112.33
0.17128 -112.29
0.17078 -112.26
0.17027 -112.22
0.16976 -112.18
0.16924 -112.14
0.16873 -112.1
0.16822 -112.06
0.16772 -112.02
0.16724 -111.98
0.16677 -111.94
0.16632 -111.9
0.16587 -111.86
0.16543 -111.82
0.165 -111.78
0.16456 -111.74
0.16411 -111.7
0.16366 -111.66
0.1632 -111.61
0.16273 -111.57
0.16227 -111.53
0.1618 -111.49
0.16134 -111.44
0.16089 -111.4
0.16044 -111.36
0.16 -111.32
0.15956 -111.27
0.15911 -111.23
0.15866 -111.19
0.1582 -111.15
0.15773 -111.1
0.15727 -111.06
0.1568 -111.01
0.15634 -110.97
0.15588 -110.92
0.15543 -110.87
0.15499 -110.82
0.15454 -110.78
0.1541 -110.73
0.15366 -110.68
0.15322 -110.63
0.15278 -110.58
0.15234 -110.53
0.1519 -110.48
0.15146 -110.43
0.15101 -110.38
0.15057 -110.33
0.15012 -110.28
0.14966 -110.23
0.1492 -110.18
0.14874 -110.13
0.14827 -110.07
0.1478 -110.02
0.14734 -109.97
0.14688 -109.91
0.14644 -109.86
0.146 -109.8
0.14557 -109.75
0.14512 -109.69
0.14469 -109.63
0.14423 -109.57
0.14375 -109.52
0.14326 -109.46
0.14275 -109.4
0.14225 -109.34
0.14174 -109.28
0.14125 -109.22
0.14077 -109.16
0.14032 -109.1
0.13987 -109.04
0.13944 -108.98
0.139 -108.92
0.13857 -108.86
0.13813 -108.8
0.13768 -108.73
0.13722 -108.67
0.13676 -108.6
0.13628 -108.53
0.13578 -108.47
0.13527 -108.4
0.13476 -108.33
0.13425 -108.26
0.13375 -108.19
0.13326 -108.12
0.13275 -108.05
0.13225 -107.98
0.13175 -107.9
0.13125 -107.83
0.13075 -107.76
0.13025 -107.68
0.12975 -107.61
0.12925 -107.53
0.12875 -107.46
0.12825 -107.38
0.12775 -107.3
0.12725 -107.23
0.12675 -107.15
0.12625 -107.07
0.12575 -106.99
0.12525 -106.9
0.12475 -106.82
0.12425 -106.74
0.12375 -106.65
0.12325 -106.56
0.12275 -106.48
0.12225 -106.39
0.12176 -106.31
0.12127 -106.22
0.12078 -106.13
0.12028 -106.04
0.11976 -105.95
0.11923 -105.86
0.11868 -105.77
0.11813 -105.68
0.11756 -105.59
0.117 -105.5
0.11644 -105.4
0.11588 -105.3
0.11532 -105.2
0.11477 -105.1
0.11424 -105
0.11372 -104.89
0.11322 -104.78
0.11273 -104.67
0.11224 -104.56
0.11175 -104.45
0.11125 -104.34
0.11076 -104.23
0.11027 -104.12
0.10978 -104
0.10928 -103.89
0.10876 -103.77
0.10823 -103.65
0.10768 -103.53
0.10713 -103.41
0.10657 -103.29
0.106 -103.17
0.10544 -103.05
0.10487 -102.92
0.10432 -102.79
0.10379 -102.66
0.10327 -102.53
0.10276 -102.4
0.10225 -102.26
0.10175 -102.13
0.10123 -101.99
0.1007 -101.85
0.10016 -101.71
0.099608 -101.57
0.099046 -101.42
0.098466 -101.28
0.097866 -101.13
0.097243 -100.97
0.096597 -100.81
0.09593 -100.65
0.095245 -100.48
0.094545 -100.31
0.093839 -100.13
0.093132 -99.953
0.092435 -99.771
0.091752 -99.588
0.09109 -99.402
0.090451 -99.215
0.089834 -99.027
0.089236 -98.838
0.088653 -98.648
0.088083 -98.457
0.087525 -98.265
0.086969 -98.073
0.086407 -97.877
0.085866 -97.685
0.085332 -97.493
0.084798 -97.3
0.084265 -97.106
0.083733 -96.91
0.083198 -96.713
0.08266 -96.514
0.082115 -96.312
0.081561 -96.108
0.080998 -95.902
0.080433 -95.695
0.079872 -95.486
0.079317 -95.275
0.078773 -95.061
0.078241 -94.843
0.077725 -94.622
0.077221 -94.397
0.076728 -94.168
0.076239 -93.935
0.075748 -93.698
0.075253 -93.457
0.074744 -93.207
0.074247 -92.958
0.073748 -92.707
0.07325 -92.451
0.07275 -92.192
0.072251 -91.93
0.07175 -91.663
0.07125 -91.392
0.070749 -91.118
0.070249 -90.84
0.069745 -90.56
0.069237 -90.277
0.068727 -89.992
0.068222 -89.704
0.067726 -89.412
0.067243 -89.117
0.066774 -88.819
0.066318 -88.517
0.065872 -88.21
0.065432 -87.9
0.064995 -87.586
0.064553 -87.267
0.064103 -86.945
0.063653 -86.626
0.063197 -86.304
0.06273 -85.97
0.062275 -85.639
0.061812 -85.297
0.061342 -84.941
0.060882 -84.587
0.060422 -84.22
0.059973 -83.846
0.059533 -83.459
0.059116 -83.073
0.0587 -82.674
0.058288 -82.269
0.057863 -81.85
0.057433 -81.424
0.057 -80.992
0.056561 -80.545
0.056137 -80.1
0.055714 -79.64
0.055288 -79.164
0.054862 -78.681
0.054432 -78.192
0.053997 -77.695
0.05355 -77.182
0.05311 -76.661
0.052683 -76.132
0.052274 -75.596
0.051871 -75.042
0.051468 -74.471
0.051076 -73.902
0.05068 -73.316
0.050289 -72.722
0.049901 -72.111
0.049524 -71.494
0.049156 -70.869
0.048795 -70.238
0.048428 -69.589
0.048054 -68.922
0.047685 -68.26
0.04732 -67.581
0.046969 -66.894
0.046629 -66.188
0.046303 -65.474
0.045995 -64.751
0.0457 -64.007
0.045415 -63.253
0.045135 -62.488
0.044862 -61.699
0.044603 -60.898
0.044349 -60.073
0.044096 -59.234
0.043843 -58.382
0.043597 -57.517
0.043356 -56.622
0.043116 -55.701
0.042881 -54.783
0.042642 -53.84
0.04241 -52.875
0.04219 -51.902
0.041981 -50.922
0.041785 -49.936
0.041597 -48.933