 BTK NOAA Ike Track - Holland      ! 32 CHARACTER ALPHANUMERIC RUN DESCRIPTION
 padcirc 50.71                     ! 24 CHARACTER ALPANUMERIC RUN IDENTIFICATION
 1  ! NFOVER - NONFATAL ERROR OVERRIDE OPTION
 1  ! NABOUT - ABREVIATED OUTPUT OPTION PARAMETER
 100 ! NSCREEN - UNIT 6 OUTPUT OPTION PARAMETER
 0   ! IHOT - HOT START PARAMETER
 2  ! ICS - COORDINATE SYSTEM SELECTION PARAMETER
 0  ! IM - MODEL SELECTION PARAMETER 
 1  ! NOLIBF - BOTTOM FRICTION TERM SELECTION PARAMETER
 3  ! NOLIFA - FINITE AMPLITUDE TERM SELECTION PARAMETER
 0  ! NOLICA - SPATIAL DERIVATIVE CONVECTIVE SELECTION PARAMETER
 0  ! NOLICAT - TIME DERIVATIVE CONVECTIVE TERM SELECTION PARAMETER
 7  ! NWP - VARIABLE BOTTOM FRICTION AND LATERAL VISCOSITY OPTION PARAMETER
sea_surface_height_above_geoid
primitive_weighting_in_continuity_equation
average_horizontal_eddy_viscosity_in_sea_water_wrt_depth
mannings_n_at_sea_floor
surface_submergence_state
surface_canopy_coefficient
surface_directional_effective_roughness_length
 1  ! NCOR - VARIABLE CORIOLIS IN SPACE OPTION PARAMETER
 1  ! NTIP - TIDAL POTENTIAL OPTION PARAMETER
 12  ! NWS - WIND STRESS AND BAROMETRIC PRESSURE OPTION PARAMETER
 1  ! NRAMP - RAMP FUNCTION OPTION
 9.81  ! G - ACCELERATION DUE TO GRAVITY - DETERMINES UNITS
 -3.0 ! TAU0 - WEIGHTING FACTOR IN GWCE
 1.0  ! DT - TIME STEP (IN SECONDS)
 0.00  ! STATIM - STARTING TIME (IN DAYS)
 0.00   ! REFTIM - REFERENCE TIME (IN DAYS)
 900 600  ! WTIMINC
 10.00 ! RNDAY - TOTAL LENGTH OF SIMULATION (IN DAYS)
 1.0  ! DRAMP - DURATION OF RAMP FUNCTION (IN DAYS)
 0.35 0.30 0.35  ! TIME WEIGHTING FACTORS FOR THE GWCE EQUATION
 0.10 0 0 0.01    ! H0, NODEDRYMIN, NODEWETMIN, VELMIN
 265.5 29.0 ! SLAM0,SFEA0 - CENTER OF CPP PROJECTION (NOT USED IF ICS=1, NTIP=0, NCOR=0)
 0.0 2.0 10 1.33333 !  FFACTOR,HBREAK,FTHETA,FGAMMA
 50.0 ! ESL - LATERAL EDDY VISCOSITY COEFFICIENT; IGNORED IF NWP =1
 0.0    ! CORI - CORIOLIS PARAMETER - IGNORED IF NCOR = 1
 0      ! NTIF - TOTAL NUMBER OF TIDAL POTENTIAL CONSTITUENTS BE
 1      ! NBFR - TOTAL NUMBER OF FORCING FREQUENCIES ON OPEN BOU
 STEADY ! 
 0.000000000000000  1.00000   000.00
 STEADY ! 
 0.0000 0.0000
 0.0000 0.0000
 0.0000 0.0000
 0.0000 0.0000
 0.0000 0.0000
 0.0000 0.0000
 0.0000 0.0000
 0.0000 0.0000
 0.0000 0.0000
 0.0000 0.0000
 0.0000 0.0000
 0.0000 0.0000
 0.0000 0.0000
 0.0000 0.0000
 0.0000 0.0000
 0.0000 0.0000
 0.0000 0.0000
 0.0000 0.0000
 0.0000 0.0000
 0.0000 0.0000
 0.0000 0.0000
 0.0000 0.0000
 0.0000 0.0000
 0.0000 0.0000
 0.0000 0.0000
 0.0000 0.0000
 0.0000 0.0000
 0.0000 0.0000
 0.0000 0.0000
 0.0000 0.0000
 0.0000 0.0000
 0.0000 0.0000
 0.0000 0.0000
 0.0000 0.0000
 0.0000 0.0000
 0.0000 0.0000
 0.0000 0.0000
 0.0000 0.0000
 0.0000 0.0000
 0.0000 0.0000
 0.0000 0.0000
 0.0000 0.0000
 0.0000 0.0000
 0.0000 0.0000
 0.0000 0.0000
 0.0000 0.0000
 0.0000 0.0000
 0.0000 0.0000
 0.0000 0.0000
 0.0000 0.0000
 0.0000 0.0000
 0.0000 0.0000
 0.0000 0.0000
 0.0000 0.0000
 0.0000 0.0000
 0.0000 0.0000
 0.0000 0.0000
 0.0000 0.0000
 0.0000 0.0000
 0.0000 0.0000
 0.0000 0.0000
 0.0000 0.0000
 0.0000 0.0000
 0.0000 0.0000
 0.0000 0.0000
 0.0000 0.0000
 0.0000 0.0000
 0.0000 0.0000
 0.0000 0.0000
 0.0000 0.0000
 0.0000 0.0000
 0.0000 0.0000
 0.0000 0.0000
 0.0000 0.0000
 0.0000 0.0000
 0.0000 0.0000
 0.0000 0.0000
 0.0000 0.0000
 0.0000 0.0000
 0.0000 0.0000
 0.0000 0.0000
 0.0000 0.0000
 0.0000 0.0000
 0.0000 0.0000
 0.0000 0.0000
 0.0000 0.0000
 0.0000 0.0000
 0.0000 0.0000
 0.0000 0.0000
 0.0000 0.0000
 0.0000 0.0000
 0.0000 0.0000
 0.0000 0.0000
 0.0000 0.0000
 0.0000 0.0000
 0.0000 0.0000
 0.0000 0.0000
 0.0000 0.0000
 0.0000 0.0000
 0.0000 0.0000
 0.0000 0.0000
 0.0000 0.0000
 0.0000 0.0000
 0.0000 0.0000
 0.0000 0.0000
 0.0000 0.0000
 0.0000 0.0000
 0.0000 0.0000
 0.0000 0.0000
 0.0000 0.0000
 0.0000 0.0000
 0.0000 0.0000
 0.0000 0.0000
 0.0000 0.0000
 0.0000 0.0000
 0.0000 0.0000
 0.0000 0.0000
 0.0000 0.0000
 0.0000 0.0000
 0.0000 0.0000
 0.0000 0.0000
 0.0000 0.0000
 0.0000 0.0000
 0.0000 0.0000
 0.0000 0.0000
 0.0000 0.0000
 0.0000 0.0000
 0.0000 0.0000
 0.0000 0.0000
 0.0000 0.0000
 0.0000 0.0000
 0.0000 0.0000
 0.0000 0.0000
 0.0000 0.0000
 0.0000 0.0000
 0.0000 0.0000
 0.0000 0.0000
 0.0000 0.0000
 0.0000 0.0000
 0.0000 0.0000
 0.0000 0.0000
 0.0000 0.0000
 0.0000 0.0000
 0.0000 0.0000
 0.0000 0.0000
 0.0000 0.0000
 0.0000 0.0000
 0.0000 0.0000
 0.0000 0.0000
 0.0000 0.0000
 0.0000 0.0000
 0.0000 0.0000
 0.0000 0.0000
 0.0000 0.0000
 0.0000 0.0000
 0.0000 0.0000
 0.0000 0.0000
 0.0000 0.0000
 0.0000 0.0000
 0.0000 0.0000
 0.0000 0.0000
 0.0000 0.0000
 0.0000 0.0000
 0.0000 0.0000
 0.0000 0.0000
 0.0000 0.0000
 0.0000 0.0000
 0.0000 0.0000
 0.0000 0.0000
 0.0000 0.0000
 0.0000 0.0000
 0.0000 0.0000
 0.0000 0.0000
 0.0000 0.0000
 0.0000 0.0000
 0.0000 0.0000
 0.0000 0.0000
 0.0000 0.0000
 0.0000 0.0000
 0.0000 0.0000
 0.0000 0.0000
 0.0000 0.0000
 0.0000 0.0000
 0.0000 0.0000
 0.0000 0.0000
 0.0000 0.0000
 0.0000 0.0000
 0.0000 0.0000
 0.0000 0.0000
 0.0000 0.0000
 0.0000 0.0000
 0.0000 0.0000
 0.0000 0.0000
 0.0000 0.0000
 0.0000 0.0000
 0.0000 0.0000
 0.0000 0.0000
 0.0000 0.0000
 0.0000 0.0000
 0.0000 0.0000
 0.0000 0.0000
 0.0000 0.0000
 0.0000 0.0000
 0.0000 0.0000
 0.0000 0.0000
 0.0000 0.0000
 0.0000 0.0000
 0.0000 0.0000
 0.0000 0.0000
 0.0000 0.0000
 0.0000 0.0000
 0.0000 0.0000
 0.0000 0.0000
 0.0000 0.0000
 0.0000 0.0000
 0.0000 0.0000
 0.0000 0.0000
 0.0000 0.0000
 0.0000 0.0000
 0.0000 0.0000
 0.0000 0.0000
 0.0000 0.0000
 0.0000 0.0000
 0.0000 0.0000
 0.0000 0.0000
 0.0000 0.0000
 0.0000 0.0000
 0.0000 0.0000
 0.0000 0.0000
 0.0000 0.0000
 0.0000 0.0000
 0.0000 0.0000
 0.0000 0.0000
 0.0000 0.0000
 0.0000 0.0000
 0.0000 0.0000
 0.0000 0.0000
 0.0000 0.0000
 0.0000 0.0000
 0.0000 0.0000
 0.0000 0.0000
 0.0000 0.0000
 0.0000 0.0000
 0.0000 0.0000
 0.0000 0.0000
 0.0000 0.0000
 0.0000 0.0000
 0.0000 0.0000
 0.0000 0.0000
 0.0000 0.0000
 0.0000 0.0000
 0.0000 0.0000
 0.0000 0.0000
 0.0000 0.0000
 0.0000 0.0000
 0.0000 0.0000
 0.0000 0.0000
 0.0000 0.0000
 0.0000 0.0000
 0.0000 0.0000
 0.0000 0.0000
 0.0000 0.0000
 0.0000 0.0000
 0.0000 0.0000
 0.0000 0.0000
 0.0000 0.0000
 0.0000 0.0000
 0.0000 0.0000
 0.0000 0.0000
 0.0000 0.0000
 0.0000 0.0000
 0.0000 0.0000
 0.0000 0.0000
 0.0000 0.0000
 0.0000 0.0000
 0.0000 0.0000
 0.0000 0.0000
 0.0000 0.0000
 0.0000 0.0000
 0.0000 0.0000
 0.0000 0.0000
 0.0000 0.0000
 0.0000 0.0000
 0.0000 0.0000
 0.0000 0.0000
 0.0000 0.0000
 0.0000 0.0000
 0.0000 0.0000
 0.0000 0.0000
 0.0000 0.0000
 0.0000 0.0000
 0.0000 0.0000
 110.0 ! ANGINN : INNER ANGLE THRESHOLD
1 6.0 10.0 900 ! NOUTE,TOUTSE,TOUTFE,NSPOOLE:ELEV STATION OUTPUT INFO (UNIT  61)
 530     ! TOTAL NUMBER OF ELEVATION RECORDING STATIONS
-95.2083	29.2119		!	1	SSS-TX-BRA-001	Start of USGS Deployable
-95.2881	29.0847		!	2	SSS-TX-BRA-002	
-95.4486	28.8683		!	3	SSS-TX-BRA-004	
-95.5556	28.9494		!	4	SSS-TX-BRA-005	
-95.5872	28.8667		!	5	SSS-TX-BRA-006	
-95.1314	29.2867		!	6	SSS-TX-BRA-007	
-95.3989	29.0356		!	7	SSS-TX-BRA-008	
-95.3297	29.0131		!	8	SSS-TX-BRA-009	
-95.2842	29.3364		!	9	SSS-TX-BRA-010	
-95.3567	29.2967		!	10	SSS-TX-BRA-011	
-94.7511	29.3344		!	11	SSS-TX-GAL-008	
-94.8778	29.2381		!	12	SSS-TX-GAL-010	
-94.9447	29.2208		!	13	SSS-TX-GAL-011	
-95.1172	29.0861		!	14	SSS-TX-GAL-015	
-94.9053	29.3039		!	15	SSS-TX-GAL-016	
-95.04		29.3558		!	16	SSS-TX-GAL-018	
-94.9578	29.5064		!	17	SSS-TX-GAL-019
-95.0478	29.4567		!	18	SSS-TX-GAL-020
-95.1039	29.5133		!	19	SSS-TX-GAL-021
-95.0247	29.5517		!	20	SSS-TX-GAL-022
-94.9989	29.6203		!	21	SSS-TX-HAR-002
-95.1283	29.5919		!	22	SSS-TX-HAR-003
-94.9933	29.7131		!	23	SSS-TX-HAR-004
-96.2739	28.7206		!	24	SSS-TX-MAT-001
-96.1503	28.7864		!	25	SSS-TX-MAT-002
-95.9958	28.7875		!	26	SSS-TX-MAT-003
-95.8528	28.8389		!	27	SSS-TX-MAT-004
-95.9781	28.6006		!	28	SSS-TX-MAT-005
-95.9756	28.6831		!	29	SSS-TX-MAT-006
-96.2153	28.6114		!	30	SSS-TX-MAT-007
-95.6269	28.7642		!	31	SSS-TX-MAT-008
-95.6167	28.7706		!	32	SSS-TX-MAT-009
-95.6683	28.8364		!	33	SSS-TX-MAT-010
-96.7117	28.4064		!	34	SSS-TX-CAL-001
-96.4025	28.4444		!	35	SSS-TX-CAL-002
-96.6197	28.6192		!	36	SSS-TX-CAL-003
-96.4117	28.6606		!	37	SSS-TX-CAL-004
-96.3233	28.6414		!	38	SSS-TX-CAL-005
-94.6753	29.6042		!	39	SSS-TX-CHA-003
-94.6869	29.7728		!	40	SSS-TX-CHA-004
-94.6342	29.4514		!	41	SSS-TX-GAL-001
-94.6481	29.4658		!	42	SSS-TX-GAL-002
-94.3903	29.5944		!	43	SSS-TX-GAL-005
-94.1928	29.6844		!	44	SSS-TX-JEF-001
-94.0436	29.675		!	45	SSS-TX-JEF-002
-94.1164	29.7103		!	46	SSS-TX-JEF-004
-94.0983	29.6969		!	47	SSS-TX-JEF-005
-93.86		29.7111		!	48	SSS-TX-JEF-006
-93.9425	29.7739		!	49	SSS-TX-JEF-007	
-93.8978	29.7647		!	50	SSS-TX-JEF-008	
-94.0884	29.6627		!	51	SSS-TX-JEF-009	
-93.6636	29.7503		!	52	SSS-LA-CAM-001	
-93.5825	29.7619		!	53	SSS-LA-CAM-002	
-93.3489	29.8042		!	54	SSS-LA-CAM-003	
-93.115		29.7861		!	55	SSS-LA-CAM-010	
-93.0797	29.8706		!	56	SSS-LA-CAM-011	
-93.0144	29.7706		!	57	SSS-LA-CAM-012	
-92.4269	29.6411		!	58	SSS-LA-VER-006	
-92.3417	29.6003		!	59	SSS-LA-VER-007	End of USGS Deployable
-89.7406	30.1669		!	60	 Rigolets at Hwy 90 near Slidell, LA 	Start of USGS Permanent
-90.01		29.48305	!	61	 Barataria Waterway S of Lafitte, LA 	
-90.1		29.4666		!	62	 Little Lake near Bay Dosgris E of Galliano, LA 	
-89.9405	29.32472	!	63	 Barataria Bay near Grand Terre Island, LA 	
-90.0411	29.3983		!	64	 Hackberry Bay NW of Grand Isle, LA 	
-95.9689	28.6844		!	65	 Colorado Rv Bypass Channel nr Matagorda, TX 	
-95.3814	28.8978		!	66	 Brazos Rv at GIWW Flood Gates nr Freeport, TX 	
-94.9631	29.3456		!	67	 La Marque Levee Pump Sta nr La Marque, TX (LOCATION NOT RESOLVED AS OF TX2008_R03)	
-94.9247	29.3572		!	68	 TX City Pump Sta at Texas City, TX (LOCATION NOT RESOLVED AS OF TX2008_R03) 	
-94.12		29.4472		!	69	 Moses Lk-Galveston Bay nr Texas City, TX 	
-95.0237	29.5497		!	70	 Clear Lk Second Outflow Channel at Kemah, TX Moved From (-95.0239,29.5503) 	
-95.1783	29.5172		!	71	 Clear Ck nr Friendswood, TX 	
-95.2907	29.7492		!	72	 Buffalo Bayou at Turning Basin, Houston, TX Moved From (-95.2908,29.7492)	
-94.7311	29.8122		!	73	 Trinity Rv at Wallisville, TX 	
-93.3488	29.8155		!	74	 Calcasieu River at Cameron, LA 	
-90.1814	29.5175		!	75	 Little Lake Near Cutoff, LA 	
-89.9506	29.4225		!	76	 Barataria Bay N of Grand Isle, LA 	
-89.606		29.5858		!	77	 Northeast Bay Gardene near Point-A-LA-Hache, LA 	
-89.5636	29.6333		!	78	 Black Bay nr Snake Island nr Point-A-LA-Hache, LA 	End of USGS Permanent
-97.2154	26.0616		!	79	 Port Isabel, TX 	Start of TCOON 
-93.9314	29.8675		!	80	Port Arthur Moved From (-93.931	,29.8672)
-93.88		29.98		!	81	Rainbow Bridge
-93.8705	29.7297		!	82	Sabine Pass Moved From (-93.8709,29.7298)
-94.9847	29.682		!	83	Morgans Point
-95.2656	29.7247		!	84	Manchester Houston Moved From (-95.265,29.7233)
-93.8367	29.6783		!	85	Texas Point Moved From (-93.83722,29.67833)
-94.5136	29.5154		!	86	Rollover Pass (-94.5133,29.515)
-94.91721	29.48131	! 	87	Eagle Point
-94.787		29.3137		!	88	Galveston Pier 21 Moved From (-94.7867,29.3133)
-94.7883	29.285		!	89	Galveston Pleasure Pier
-95.3025	28.9423		!	90	USCG Freeport
-96.7122	28.4073		!	91	Seadrift
-96.6097	28.6404		!	92	Port Lavaca
-96.3961	28.4462		! 	93	Port O'Connor Moved From (-96.39607,28.44603)
-97.0242	28.1145		!	94	Copano Bay
-97.0478	28.0234		!	95	Rockport Moved From (-97.0478,28.0243)
-97.484		27.8595		!	96	White Point Moved From (-97.4828,27.8608)
-97.5208	27.8459		!	97	Viola Turning Basin Moved From (-97.5209,27.84623)	
-97.073		27.8404		!	98	Port Aransas Moved From (-97.07274,27.83975)	
-97.2035	27.8208		!	99	Ingleside Moved From (-97.2033,27.8217)	
-97.3984	27.8143		!	100	TX State Aquarium	
-97.23696	27.63457	!	101	Packery Channel	
-97.21646	27.58102	!	102	Bob Hall Pier	
-97.3181	27.4847		!	103	South Bird island	
-97.40491	27.29702	!	104	Baffin Bay	
-97.4706	26.8015		!	105	Rincon del San Jose	
-97.4247	26.5595		!	106	Port Mansfield	
-97.1671	26.0726		!	107	South Padre Island USCG Station	End of TCOON Stations
-88.075		30.25		!	108	Dauphin Island Start of NOAA Stations	
-89.325		30.325		!	109	Bay Waveland Yacht Club	
-89.4066	28.9316		!	110	Pilots Station East SW Pass	
-91.88		29.7133		!	111	Cypremont Point	
-93.2222	30.2237		!	112	 Lk Charles, Calcasieu Rvr Moved From (-93.2216,30.2233) 	
-93.3431	29.7663		!	113	 Calcasieu Pass, East Jetty Moved From (-93.3416,29.7666)	
-97.2166	27.58		!	114	 Corpus Christi, GOM 	End of NOAA Stations
-97.1176	27.6289		!	115	R	Start Dr. A. Kennedy (UND) Stations
-96.5503	28.2077		!	116	S	
-96.214		28.4347		!	117	T	
-95.75235	28.6251		!	118	U 	
-95.3151	28.8704		!	119	V 	
-95.0396	29.0714		!	120	W 	
-94.70895	29.2812		!	121	X	
-94.3884	29.4964		!	122	Y 	
-94.1253	29.5846		!	123	Z	End Dr. A. Kennedy (UND) Stations 
-81.121		24.7294		!	124	Vaca Key	Start Additional NOAA gauges
-81.8259	24.5573		!	125	Key West	
-81.8239   	26.1434 	!	126	Naples	
-82.8317	27.9783		!	127	Clearwater Beach	
-83.0317	29.135		!	128	Cedar Key	
-84.9773	29.7136		!	129	Apalachicola
-85.7113	30.0972		!	130	Panama City
-88.5054	30.3477		!	131	Dock E Port of Pascagoula
-88.563		30.3679		!	132	Pascagoula NOAA lab
-89.0817	30.36		!	133	gulfport Harbor
-89.6733	29.8681		!	134	Shell Beach
-89.9545	29.2676		!	135	Grand Isle
-90.1134	30.0272		!	136	New Canal Station
-90.1985	29.0848		!	137	Port Fourchon
-91.3381	29.4496		!	138	Lawma Aerada Pass
-91.88		29.7134		!	139	Cypremort Point
-92.30816	29.5341		!	140	Freshwater Canal Locks End Additional NOAA gauges
-93.6402        29.6424         !       141     TABS-R  Start Current Stations
-94.2365        28.8369         !       142     TABS-F
-94.9183        28.9819         !       143     TABS-B
-94.05          29.67           !       144     NDBC SRST2
-94.41          29.25           !       145     NDBC 42035
-96.0221        28.3348         !       146     W
-95.36          27.92           !       147     NDBC 42019
-96.8083        27.9328         !       148     TABS-D  End Current Stations 
-95.1127        29.7352         !       149     hanadi: Deer Park Plant
-95.1841        29.7447         !       150     hanadi:  Gulf Sulphur Services
-95.0298        29.7328         !       151     hanadi: Georgia Gulf Chems
-95.1029        29.8152         !       152     hanadi: Greens Bayou Industrial
-94.8177        29.7547         !       153     hanadi: Cedar Bayou Electric
-95.0706        29.7654         !       154     hanadi: Houston Marine Services
-95.1913        29.7449         !       155     hanadi: Greens Port Industrial
-95.2285        29.7313         !       156     hanadi: American Texmark
-95.1766        29.7608         !       157     hanadi: Atofina Chemicals
-95.1141        29.713          !       158     hanadi: Deer Park Facility
-95.1667        29.7431         !       159     hanadi: Pasadena Plant
-95.0766        29.7686         !       160     hanadi: Channel Shipyard Co.
-95.1660        29.7486         !       161     hanadi: Port of Houston Bulk Terminal
-94.9113        29.3649         !       162     hanadi: Texas City Plant
-95.3032        29.7538         !       163     hanadi:  ReedHycalag Plant
-95.09491667    29.74438889     !       164     hanadi: VOPAK TERMINAL DEER PARK INC
-95.09658333    29.74772222     !       165     hanadi: VOPAK TERMINAL DEER PARK INC
-95.09575       29.74855556     !       166     hanadi: VOPAK TERMINAL DEER PARK INC
-95.10547222    29.75022222     !       167     hanadi: PRECOAT METALS DIVISION PLANT
-95.10052778    29.75113889     !       168     hanadi: HFOTCO LLC
-95.09908333    29.75161111     !       169     hanadi: OIL STATES INDUSTRIES WWTP
-95.10686111    29.743          !       170     hanadi: CARE TERMINAL WWTP
-95.10572222    29.73986111     !       171     hanadi: ROHM AND HASS TEXAS  INC.
-95.12241667    29.733          !       172     hanadi: DEER PARK CHEMICAL PLANT
-95.12438889    29.73230556     !       173     hanadi: SHELL OIL COMPANY
-95.12763889    29.73213889     !       174     hanadi: SHELL OIL COMPANY
-95.14097222    29.73419444     !       175     hanadi: SHELL OIL COMPANY
-95.13936111    29.733          !       176     hanadi: DEER PARK ENERGY CENTER
-95.14741667    29.73494444     !       177     hanadi: KINDER MORGAN PETCOKE  LP
-95.16019444    29.74383333     !       178     hanadi: CALTEX MILL
-95.17519444    29.71938889     !       179     hanadi: PASADENA TERMINAL
-95.1545        29.73280556     !       180     hanadi: GEORGIA GULF CHEMS/VINYLS WWTP
-95.16602778    29.74855556     !       181     hanadi: PORT OF HOUSTON BULK TERMINAL
-95.16825       29.74494444     !       182     hanadi: ETHYL CORPORTATION
-95.16669444    29.74311111     !       183     hanadi: PASADENA PLANT
-95.167         29.74241667     !       184     hanadi: PASADENA PLANT
-95.17308333    29.74602778     !       185     hanadi: PASADENA PLANT
-95.17269444    29.74105556     !       186     hanadi: PASADENA PLASTICS COMPLEX
-95.18436111    29.74466667     !       187     hanadi: GEREKE CHEMICALS INC.
-95.18575       29.74466667     !       188     hanadi: GEREKE CHEMICALS INC.
-95.18408333    29.74466667     !       189     hanadi: FKP-PASADENA  LLC
-95.18686111    29.74605556     !       190     hanadi: GREENS PORT INDUSTRIAL PARK
-95.19130556    29.74494444     !       191     hanadi: GREENS PORT INDUSTRIAL PARK
-95.19261111    29.74233333     !       192     hanadi: AGRIFOS FERTILIZER  INC. -WWTP
-95.19844444    29.74030556     !       193     hanadi: AGRIFOS FERTILIZER  INC. -WWTP
-95.23075       29.72327778     !       194     hanadi: HOUSTON REFINING  L.P.
-95.23130556    29.723          !       195     hanadi: HOUSTON REFINING  L.P.
-95.23630556    29.72244444     !       196     hanadi: VOPAK TERMINAL GALENA PARK INC
-95.23908333    29.71661111     !       197     hanadi: HOUSTON REFINING  L.P.
-95.19588889    29.74497222     !       198     hanadi: GALENA PARK TERMINAL - WWTP
-95.24972222    29.72061111     !       199     hanadi: VALERO REFINING - TEXAS LP
-95.25213889    29.72383333     !       200     hanadi: VALERO REFINING - TEXAS LP
-95.25186111    29.72411111     !       201     hanadi: VALERO REFINING - TEXAS LP
-95.26047222    29.72605556     !       202     hanadi: VALERO REFINING - TEXAS LP
-95.25630556    29.72605556     !       203     hanadi: VALERO REFINING - TEXAS LP
-95.26047222    29.72605556     !       204     hanadi: VALERO REFINING - TEXAS LP
-95.26269444    29.72522222     !       205     hanadi: SOUTH COAST TERMINALS  L.P.
-95.26325       29.72438889     !       206     hanadi: OXID  L.P.
-95.26269444    29.72522222     !       207     hanadi: OUTH COAST TERMINALS  L.P.
-95.26491667    29.72438889     !       208     hanadi: SOUTH COAST TERMINALS LP -WWTP
-95.27102778    29.72383333     !       209     hanadi: SWS HOLDINGS-BRADY ISLAND  LP
-95.27158333    29.72411111     !       210     hanadi: SWS HOLDINGS-BRADY ISLAND  LP
-95.27241667    29.72411111     !       211     hanadi: SWS HOLDINGS-BRADY ISLAND  LP
-95.27380556    29.72502778     !       212     hanadi: SWS HOLDINGS-BRADY ISLAND  LP
-95.30325       29.75383333     !       213     hanadi: REEDHYCALOG PLANT
-95.3055        29.75530556     !       214     hanadi: PETROLEUM COKE GRINDING - WWTP
-95.3075        29.75430556     !       215     hanadi: PETROLEUM COKE GRINDING - WWTP
-95.30869444    29.75411111     !       216     hanadi: PETROLEUM COKE GRINDING - WWTP
-95.0015        29.7018         !       217     bedient: Houston Ship Channel entrance (d/s of SH146 bridge)
-95.1370        29.7354         !       218     bedient: Houston Ship Channel at the Port of Houston
-95.0248        29.5493         !       219     bedient: Entrance to Clear Lake (u/s SH146 bridge)
-95.0566        29.5603         !       220     bedient: Clear Lake at Taylor Lake entrance
-95.0802        29.5463         !       221     bedient: Clear Lake at Clear Creek entrance
-94.9146        29.4484         !       222     bedient: Texas City levee at Moses Lake entrance
-94.8814        29.3034         !       223     bedient: West Galveston Bay at I-45 bridge
-94.8552        29.5876         !       224     bedient: Central Galveston Bay
-94.7463        29.7559         !       225     bedient: Upper Trinity Bay
-94.9981	29.7140	        !	226	Padgett:	WEST MAIN STREET	SH 146 NB
-94.9981	29.7140	        !	227	Padgett:	WEST MAIN STREET	SH 146 NB
-94.9997	29.7143	        !	228	Padgett:	WEST MAIN STREET	SH 146 NB
-94.9987	29.7149	        !	229	Padgett:	WEST MAIN STREET	SH 146 NB
-94.9973	29.7171	        !	230	Padgett:	WEST MAIN STREET	SH 146 NB
-94.9973	29.7171	        !	231	Padgett:	WEST MAIN STREET	SH 146 NB
-94.9916	29.7236	        !	232	Padgett:	WEST MAIN STREET	SH 146 NB
-94.9916	29.7236	        !	233	Padgett:	WEST MAIN STREET	SH 146 NB
-94.9918	29.7236	        !	234	Padgett:	WEST MAIN STREET	SH 146 NB
-94.9918	29.7236	        !	235	Padgett:	WEST MAIN STREET	SH 146 NB
-94.9932	29.7297	        !	236	Padgett:	WEST MAIN STREET	SH 146 NB
-94.9932	29.7297	        !	237	Padgett:	WEST MAIN STREET	SH 146 NB
-94.9930	29.7297	        !	238	Padgett:	WEST MAIN STREET	SH 146 NB
-94.9930	29.7297	        !	239	Padgett:	WEST MAIN STREET	SH 146 NB
-94.9907	29.7403	        !	240	Padgett:	WEST MAIN STREET	SH 146 NB
-94.9907	29.7403	        !	241	Padgett:	WEST MAIN STREET	SH 146 NB
-94.9906	29.7407	        !	242	Padgett:	WEST MAIN STREET	SH 146 NB
-94.8254	29.2959	        !	243	Padgett:	SP & ATSF RR	SEAWOLF PKWY
-94.8269	29.2973	        !	244	Padgett:	UP RR AND CONN RAMP	SH 275 (W OF 51ST)
-94.8261	29.2981	        !	245	Padgett:	UP RR AND CONN RAMP	SH 275 (W OF 51ST)
-94.8629	29.2853	        !	246	Padgett:	BNSF RR	IH 45 NB
-94.8629	29.2853	        !	247	Padgett:	BNSF RR	IH 45 NB
-94.8629	29.2854	        !	248	Padgett:	BNSF RR	IH 45 NB
-94.8629	29.2854	        !	249	Padgett:	BNSF RR	IH 45 NB
-94.8378	29.2883	        !	250	Padgett:	BNSF RR	IH 45 NB
-94.8378	29.2883	        !	251	Padgett:	BNSF RR	IH 45 NB
-94.8503	29.2884	        !	252	Padgett:	BNSF RR	IH 45 NB
-94.8503	29.2884	        !	253	Padgett:	BNSF RR	IH 45 NB
-94.8379	29.2885	        !	254	Padgett:	BNSF RR	IH 45 NB
-94.8379	29.2885	        !	255	Padgett:	BNSF RR	IH 45 NB
-94.8504	29.2886	        !	256	Padgett:	BNSF RR	IH 45 NB
-94.8504	29.2886	        !	257	Padgett:	BNSF RR	IH 45 NB
-94.8765	29.2913	        !	258	Padgett:	BNSF RR	IH 45 NB
-94.9060	29.3070	        !	259	Padgett:	BNSF RR	IH 45 NB
-94.9058	29.3070	        !	260	Padgett:	BNSF RR	IH 45 NB
-94.9230	29.3225	        !	261	Padgett:	BNSF RR	IH 45 NB
-94.9228	29.3228	        !	262	Padgett:	BNSF RR	IH 45 NB
-94.9145	29.2247	        !	263	Padgett:	MENBELL BYU	STEWART RD
-95.0082	29.6609	        !	264	Padgett:	NO NAME BAYOU	PARK AVE
-94.6705	29.7745	        !	265	Padgett:	LONE STAR CANAL	FM 563
-95.1133	29.8016	        !	266	Padgett:	FRESH WATER BAYOU	BEAR BAYOU DR
-94.6698	29.8282	        !	267	Padgett:	LONE STAR CANAL	FM 563
-95.0298	29.6808	        !	268	Padgett:	GOOSE CREEK	SH 146 BUS SB
-95.0308	29.6810	        !	269	Padgett:	GOOSE CREEK	SH 146 BUS SB
-95.0300	29.6810	        !	270	Padgett:	GOOSE CREEK	SH 146 BUS SB
-95.0300	29.6842	        !	271	Padgett:	GOOSE CREEK	SH 146 BUS SB
-95.0300	29.6842	        !	272	Padgett:	GOOSE CREEK	SH 146 BUS SB
-95.0298	29.6846	        !	273	Padgett:	GOOSE CREEK	SH 146 BUS SB
-95.0303	29.6848	        !	274	Padgett:	GOOSE CREEK	SH 146 BUS SB
-95.0307	29.6886	        !	275	Padgett:	GOOSE CREEK	SH 146 BUS SB
-95.0308	29.6903	        !	276	Padgett:	GOOSE CREEK	SH 146 BUS SB
-95.0308	29.6903	        !	277	Padgett:	GOOSE CREEK	SH 146 BUS SB
-95.0234	29.6980	        !	278	Padgett:	GOOSE CREEK	SH 146 BUS SB
-95.0203	29.7012	        !	279	Padgett:	GOOSE CREEK	SH 146 BUS SB
-94.9914	29.7136	        !	280	Padgett:	GOOSE CREEK	SH 146 BUS SB
-94.9915	29.7137	        !	281	Padgett:	GOOSE CREEK	SH 146 BUS SB
-94.9676	29.7193	        !	282	Padgett:	GOOSE CREEK	SH 146 BUS SB
-94.7531	29.9492	        !	283	Padgett:	SWINNEY MARSH	CR 133
-94.5003	29.5085	        !	284	Padgett:	ROLLOVER PASS	SH 87
-95.0005	29.5905	        !	285	Padgett:	PINE GULLY	TODVILLE RD
-95.0209	29.6254	        !	286	Padgett:	TAYLOR BAYOU	SHADY RIVER RD
-95.0274	29.6501	        !	287	Padgett:	LITTLE CEDAR BAYOU	S EIGHTH ST
-95.0282	29.6523	        !	288	Padgett:	LITTLE CEDAR BAYOU	FAIRMONT PKWY WB
-95.0081	29.6608	        !	289	Padgett:	NO NAME BAYOU	EAST E ST
-94.9896	29.7229	        !	290	Padgett:	GOOSE CRK	WEST MAIN ST
-94.9891	29.7318	        !	291	Padgett:	GOOSE CRK	MARKET ST
-95.0980	29.7327	        !	292	Padgett:	HCFCD DITCH	TIDAL RD
-94.9838	29.7370	        !	293	Padgett:	GOOSE CRK	W TEXAS AVE
-95.1036	29.7823	        !	294	Padgett:	FRESH WATER BYU	MARKET ST
-95.0566	29.7928	        !	295	Padgett:	LYNCHBURG RES. CANAL	CROSBY-LYNCHBURG
-95.1068	29.7972	        !	296	Padgett:	FRESH WATER BAYOU	OAK LANE
-95.0610	29.8656	        !	297	Padgett:	HCFCD DITCH	CROSBY LYNCHBURG
-95.0909	29.9109	        !	298	Padgett:	GUM GULLY	DIAMONDHEAD BLVD
-95.1669	29.9217	        !	299	Padgett:	HCFCD DITCH	SUNLAND GARDENS
-94.8464	29.2691	        !	300	Padgett:	LAKE MADELINE	JONES DR WB
-94.8465	29.2692	        !	301	Padgett:	LAKE MADELINE	JONES DR EB
-94.8359	29.2845	        !	302	Padgett:	OFFATTS BAYOU	SPUR 342 SB
-94.8357	29.2845	        !	303	Padgett:	OFFATTS BAYOU	SPUR 342 SB
-94.9053	29.3009	        !	304	Padgett:	JONES BAY	TIKI DR
-95.0789	29.5225	        !	305	Padgett:	HL & P DISCHARGE CANAL	FM 270
-95.0894	29.5283	        !	306	Padgett:	HL & P DISCHARGE CANAL	FM 270
-95.0733	29.5309	        !	307	Padgett:	HL&P CANAL	DAVIS RD
-95.0715	29.5311	        !	308	Padgett:	HL & P DISCHARGE CANAL	FM 2094
-95.0961	29.5350	        !	309	Padgett:	CLEAR CREEK	FM 270
-95.0278	29.5406	        !	310	Padgett:	HL & P DISCHARGE CANAL	FM 2094
-95.0280	29.5408	        !	311	Padgett:	HL & P DISCHARGE CANAL	FM 2094
-95.0321	29.5420	        !	312	Padgett:	JARBOE BAYOU	CLEAR LAKE RD
-95.0545	29.5421	        !	313	Padgett:	HL & P DISCHARGE CANAL	FM 2094
-95.0543	29.5424	        !	314	Padgett:	HL & P DISCHARGE CANAL	FM 2094
-95.0288	29.5429	        !	315	Padgett:	CLEAR LAKE SHORE CAN	BIRCH RD.
-95.0278	29.5429	        !	316	Padgett:	CLR.LAKE SHORE CAN	BIRCH RD.
-95.1049	29.5462	        !	317	Padgett:	COW BAYOU	NASA RD 1 WB
-95.1050	29.5464	        !	318	Padgett:	COW BAYOU	NASA RD 1 WB
-95.0532	29.5489	        !	319	Padgett:	HL&P CANAL	SEMINOLE DR.
-95.0234	29.5516	        !	320	Padgett:	LITTLE CEDAR BAYOU	SH 146 NB FR
-95.0234	29.5516	        !	321	Padgett:	LITTLE CEDAR BAYOU	SH 146 NB FR
-95.0243	29.5538	        !	322	Padgett:	LITTLE CEDAR BAYOU	SH 146 NB FR
-95.0235	29.5540	        !	323	Padgett:	LITTLE CEDAR BAYOU	SH 146 NB FR
-95.0244	29.5547	        !	324	Padgett:	LITTLE CEDAR BAYOU	SH 146 NB FR
-95.0239	29.5547	        !	325	Padgett:	LITTLE CEDAR BAYOU	SH 146 NB FR
-95.0755	29.5574	        !	326	Padgett:	COW BAYOU	NASA RD 1 WB
-95.0325	29.5608	        !	327	Padgett:	COW BAYOU	NASA RD 1 WB
-95.0717	29.5631	        !	328	Padgett:	COW BAYOU	NASA RD 1 WB
-95.0709	29.5637	        !	329	Padgett:	COW BAYOU	NASA RD 1 WB
-95.0539	29.5651	        !	330	Padgett:	COW BAYOU	NASA RD 1 WB
-95.0189	29.6458	        !	331	Padgett:	LITTLE CEDAR BAYOU	BUS SH 146-D
-94.9439	29.7019	        !	332	Padgett:	HL&P CANAL	TRI-CITY BEACH RD
-94.6601	29.7305	        !	333	Padgett:	W FK DOUBLE BAYOU	FM 2936
-95.1240	29.7578	        !	334	Padgett:	CARPENTERS BAYOU	S SHELDON RD
-95.0062	29.7630	        !	335	Padgett:	SPRING BAYOU	SPUR 330 WB FR
-95.0060	29.7630	        !	336	Padgett:	SPRING BAYOU	SPUR 330 WB FR
-95.0125	29.7698	        !	337	Padgett:	SPRING BAYOU	SPUR 330 WB FR
-95.0125	29.7698	        !	338	Padgett:	SPRING BAYOU	SPUR 330 WB FR
-95.0169	29.7737	        !	339	Padgett:	SPRING BAYOU	SPUR 330 WB FR
-95.0169	29.7737	        !	340	Padgett:	SPRING BAYOU	SPUR 330 WB FR
-95.0170	29.7737	        !	341	Padgett:	SPRING BAYOU	SPUR 330 WB FR
-95.0316	29.7830	        !	342	Padgett:	SPRING BAYOU	SPUR 330 WB FR
-95.0316	29.7830	        !	343	Padgett:	SPRING BAYOU	SPUR 330 WB FR
-95.0325	29.7831	        !	344	Padgett:	SPRING BAYOU	SPUR 330 WB FR
-95.0325	29.7831	        !	345	Padgett:	SPRING BAYOU	SPUR 330 WB FR
-95.0433	29.7873	        !	346	Padgett:	SPRING BAYOU	SPUR 330 WB FR
-95.0427	29.7876	        !	347	Padgett:	SPRING BAYOU	SPUR 330 WB FR
-95.0438	29.7878	        !	348	Padgett:	SPRING BAYOU	SPUR 330 WB FR
-95.0432	29.7881	        !	349	Padgett:	SPRING BAYOU	SPUR 330 WB FR
-94.8486	29.8076	        !	350	Padgett:	HACKBERRY GULLY	FM 3180
-95.1126	29.8585	        !	351	Padgett:	CARPENTERS BAYOU	US90 WB FR
-95.1126	29.8585	        !	352	Padgett:	CARPENTERS BAYOU	US90 WB FR
-95.1127	29.8587	        !	353	Padgett:	CARPENTERS BAYOU	US90 WB FR
-95.1127	29.8587	        !	354	Padgett:	CARPENTERS BAYOU	US90 WB FR
-95.1018	29.8626	        !	355	Padgett:	CARPENTERS BAYOU	US90 WB FR
-95.1019	29.8628	        !	356	Padgett:	CARPENTERS BAYOU	US90 WB FR
-95.0938	29.8656	        !	357	Padgett:	CARPENTERS BAYOU	US90 WB FR
-95.0939	29.8658	        !	358	Padgett:	CARPENTERS BAYOU	US90 WB FR
-95.0904	29.8669	        !	359	Padgett:	CARPENTERS BAYOU	US90 WB FR
-95.0904	29.8669	        !	360	Padgett:	CARPENTERS BAYOU	US90 WB FR
-95.0905	29.8671	        !	361	Padgett:	CARPENTERS BAYOU	US90 WB FR
-95.0905	29.8671	        !	362	Padgett:	CARPENTERS BAYOU	US90 WB FR
-94.8286	29.8751	        !	363	Padgett:	OLD RIVER	FM 1409
-95.0683	29.8797	        !	364	Padgett:	CARPENTERS BAYOU	US90 WB FR
-94.8172	29.8821	        !	365	Padgett:	OLD RIVER	FM 1409
-95.0630	29.8844	        !	366	Padgett:	CARPENTERS BAYOU	US90 WB FR
-95.0630	29.8844	        !	367	Padgett:	CARPENTERS BAYOU	US90 WB FR
-95.0632	29.8846	        !	368	Padgett:	CARPENTERS BAYOU	US90 WB FR
-95.0632	29.8846	        !	369	Padgett:	CARPENTERS BAYOU	US90 WB FR
-94.9735	29.3581	        !	370	Padgett:	HIGHLAND BAYOU	FM 519
-94.9571	29.3582	        !	371	Padgett:	HIGHLAND BAYOU	FM 519
-94.9324	29.4853	        !	372	Padgett:	FACTORY BAYOU	FM 517
-94.9533	29.4881	        !	373	Padgett:	FACTORY BAYOU	FM 517
-95.0781	29.5207	        !	374	Padgett:	DRAINAGE DITCH	FM 518