WFL %StormName%  
%EnsembleID% 
1 10 0 50 30                             ! NFOVER WarnElev iWarnElevDump WarnElevDumpLimit ErrorElev - NONFATAL ERROR OVERRIDE OPTION and other stuff
1                                        ! NABOUT - ABREVIATED OUTPUT OPTION PARAMETER
%NSCREEN%   ! output frequency (in time steps) to STDOUT or adcirc.log
%IHOT%                                   ! IHOT - HOT START OPTION PARAMETER
2                                        ! ICS - COORDINATE SYSTEM OPTION PARAMETER
111112                                   ! IM - explicit solution mode 
1                                        ! NOLIBF - NONLINEAR BOTTOM FRICTION OPTION
2                                        ! NOLIFA - OPTION TO INCLUDE FINITE AMPLITUDE TERMS
1                                        ! NOLICA - OPTION TO INCLUDE CONVECTIVE ACCELERATION TERMS
1                                        ! NOLICAT - OPTION TO CONSIDER TIME DERIVATIVE OF CONV ACC TERMS
6                                        ! NWP - Number of nodal attributes.
mannings_n_at_sea_floor
primitive_weighting_in_continuity_equation
sea_surface_height_above_geoid
surface_canopy_coefficient
surface_directional_effective_roughness_length
surface_submergence_state
1                                        ! NCOR - VARIABLE CORIOLIS IN SPACE OPTION PARAMETER
1                                        ! NTIP - TIDAL POTENTIAL OPTION PARAMETER
%NWS%                                    ! NWS - WIND STRESS AND BAROMETRIC PRESSURE OPTION PARAMETER
1                                        ! NRAMP - RAMP FUNCTION OPTION
9.81                                     ! G - ACCELERATION DUE TO GRAVITY - DETERMINES UNITS
-3                                       ! TAU0 - WEIGHTING FACTOR IN GWCE
%DT%                                     ! 1.0s  DT - TIME STEP (IN SECONDS)
0.00000                                  ! STATIM - STARTING SIMULATION TIME IN DAYS
0.00000                                  ! REFTIME - REFERENCE TIME (IN DAYS) FOR NODAL FACTORS AND EQUILIBRIUM ARGS
%WTIMINC%                        ! WTIMINC, RSTIMINC - meteorological, wave radiation stress gradient data time increment
%RNDAY%                                  ! RNDAY - TOTAL LENGTH OF SIMULATION (IN DAYS)
1.0                                      ! DRAMP DRAMPExtFlux FluxSettlingTime DRAMPIntFlux DRAMPElev DRAMPTip DRAMPMete DRAMPWRad DUnRampMete - ramping
0.000000 1.000000 0.000000               ! TIME WEIGHTING FACTORS FOR THE GWCE EQUATION
0.050000 0 0 0.05                        ! *property*   H0 INTEGER INTEGER VELMIN - MINIMUM WATER DEPTH, parameter, parameter, minimum velocity for wetting
-82.5 28                                 ! SLAM0, SFEA0 - LONGITUDE AND LATITUDE ON WHICH THE CPP COORDINATE PROJECTION IS CENTERED
0.002500                                 ! FFACTOR - 2DDI BOTTOM FRICTION COEFFICIENT
05.00000                                 ! ESLM - SPATIALLY CONSTANT HORIZONTAL EDDY VISCOSITY FOR THE MOMENTUM EQUATIONS
0.000000                                 ! CORI - CONSTANT CORIOLIS COEFFICIENT
7                                        ! NTIF - NUMBER OF TIDAL POTENTIAL CONSTITUENTS
O1                                       ! TIPOTAG - NAME OF TIDAL POTENTIAL CONSTITUENT
0.10051400 0.000067597744151 0.695 %O1NF%  %O1EQARG%  ! TPK, AMIGT, ETRF, FFT, FACET - CONSTITUENT PROPERTIES
K1                                       ! TIPOTAG - NAME OF TIDAL POTENTIAL CONSTITUENT
0.14156500 0.000072921158358 0.736 %K1NF%  %K1EQARG%  ! TPK, AMIGT, ETRF, FFT, FACET - CONSTITUENT PROPERTIES
N2                                       ! TIPOTAG - NAME OF TIDAL POTENTIAL CONSTITUENT
0.04639800 0.000137879699487 0.693 %N2NF%  %N2EQARG%  ! TPK, AMIGT, ETRF, FFT, FACET - CONSTITUENT PROPERTIES
M2                                       ! TIPOTAG - NAME OF TIDAL POTENTIAL CONSTITUENT
0.24233400 0.000140518902509 0.693 %M2NF%  %M2EQARG%  ! TPK, AMIGT, ETRF, FFT, FACET - CONSTITUENT PROPERTIES
S2                                       ! TIPOTAG - NAME OF TIDAL POTENTIAL CONSTITUENT
0.11284100 0.000145444104333 0.693 %S2NF%  %S2EQARG%  ! TPK, AMIGT, ETRF, FFT, FACET - CONSTITUENT PROPERTIES
K2                                       ! TIPOTAG - NAME OF TIDAL POTENTIAL CONSTITUENT
0.03070400 0.000145842317201 0.693 %K2NF%  %K2EQARG%  ! TPK, AMIGT, ETRF, FFT, FACET - CONSTITUENT PROPERTIES
Q1                                       ! TIPOTAG - NAME OF TIDAL POTENTIAL CONSTITUENT
0.01925600 0.000064958541129 0.695 %Q1NF%  %Q1EQARG%  ! TPK, AMIGT, ETRF, FFT, FACET - CONSTITUENT PROPERTIES
7                                        ! NBFR - NUMBER OF PERIODIC FORCING FREQUENCIES ON ELEVATION SPECIFIED BOUNDARIES
O1                                       ! BOUNTAG - FORCING CONSTITUENT NAME
0.000067597744151 %O1NF%  %O1EQARG%  
K1                                       ! BOUNTAG - FORCING CONSTITUENT NAME
0.000072921158358 %K1NF%  %K1EQARG% 
N2                                       ! BOUNTAG - FORCING CONSTITUENT NAME
0.000137879699487 %N2NF%  %N2EQARG%  
M2                                       ! BOUNTAG - FORCING CONSTITUENT NAME
0.000140518902509 %M2NF%  %M2EQARG%  
S2                                       ! BOUNTAG - FORCING CONSTITUENT NAME
0.000145444104333 %S2NF%  %S2EQARG%  
K2                                       ! BOUNTAG - FORCING CONSTITUENT NAME
0.000145842317201 %K2NF%  %K2EQARG% 
Q1                                       ! BOUNTAG - FORCING CONSTITUENT NAME
0.000064958541129 %Q1NF%  %Q1EQARG%  
O1
0.75020E-01 330.825
0.72661E-01 330.731
0.71161E-01 330.807
0.69541E-01 331.025
0.67146E-01 331.132
0.64648E-01 331.264
0.62345E-01 331.369
0.59949E-01 331.464
0.56663E-01 331.599
0.53142E-01 331.676
0.49549E-01 331.824
0.45746E-01 332.036
0.42055E-01 332.315
0.38225E-01 332.664
0.34616E-01 332.712
0.31396E-01 331.858
0.28199E-01 330.931
0.25017E-01 329.900
0.21785E-01 328.396
0.16574E-01 324.450
0.12493E-01 315.946
0.98323E-02 300.207
0.83596E-02 277.613
0.86506E-02 250.379
0.10260E-01 231.180
0.14908E-01 210.874
0.22667E-01 197.114
0.30514E-01 190.490
0.39407E-01 186.598
0.50033E-01 183.635
0.51736E-01 182.990
0.52336E-01 182.570
0.52915E-01 182.130
0.53615E-01 181.580
0.54012E-01 181.402
0.53903E-01 181.582
0.53803E-01 181.742
0.53599E-01 182.035
0.53196E-01 182.232
0.52896E-01 182.432
0.52494E-01 182.611
0.52094E-01 182.761
0.51694E-01 182.921
0.51394E-01 183.100
0.50995E-01 183.290
0.50593E-01 183.471
0.50294E-01 183.621
0.49892E-01 183.781
0.49493E-01 183.910
0.49294E-01 184.010
0.48993E-01 184.120
0.48693E-01 184.259
0.48493E-01 184.399
0.48193E-01 184.560
0.47993E-01 184.730
0.47794E-01 184.910
0.47493E-01 185.170
0.47193E-01 185.471
0.46993E-01 185.711
0.46794E-01 185.940
0.46594E-01 186.190
0.46394E-01 186.401
0.46193E-01 186.621
0.45992E-01 186.841
0.45893E-01 187.121
0.45693E-01 187.401
0.45593E-01 187.691
0.45494E-01 187.980
0.45293E-01 188.280
0.45193E-01 188.651
0.45094E-01 189.011
0.44994E-01 189.341
0.44893E-01 189.631
0.44793E-01 189.931
0.44794E-01 190.292
0.44694E-01 190.652
0.44594E-01 191.001
0.44594E-01 191.321
0.44493E-01 191.652
0.44393E-01 191.992
0.44393E-01 192.331
0.44395E-01 192.672
0.44294E-01 193.012
0.44294E-01 193.352
0.44294E-01 193.692
0.44294E-01 194.032
0.44294E-01 194.372
0.44295E-01 194.712
0.44295E-01 195.102
0.44295E-01 195.482
0.44295E-01 195.872
0.44295E-01 196.292
0.44295E-01 196.712
0.44395E-01 197.133
0.44395E-01 197.563
0.44495E-01 197.983
0.44495E-01 198.443
0.44494E-01 198.893
0.44595E-01 199.333
0.44695E-01 199.752
0.44795E-01 200.182
0.44896E-01 200.643
0.44995E-01 201.102
0.45095E-01 201.573
0.45196E-01 201.993
0.45295E-01 202.413
0.45395E-01 202.833
0.45496E-01 203.253
0.45696E-01 203.674
0.45796E-01 204.093
0.45996E-01 204.514
0.46096E-01 204.904
0.46296E-01 205.293
0.46395E-01 205.714
0.46596E-01 206.155
0.46794E-01 206.584
0.46896E-01 207.012
0.47096E-01 207.454
0.47295E-01 207.863
0.47395E-01 208.263
0.47696E-01 208.673
0.47896E-01 209.083
0.48096E-01 209.483
0.48296E-01 209.893
0.48496E-01 210.303
0.48797E-01 210.703
0.48997E-01 211.073
0.49297E-01 211.443
0.49496E-01 211.823
0.49697E-01 212.223
0.49997E-01 212.603
0.50197E-01 212.963
0.50498E-01 213.322
0.50797E-01 213.673
0.50997E-01 214.032
0.51297E-01 214.383
0.51497E-01 214.683
0.51697E-01 214.982
0.51997E-01 215.272
0.52198E-01 215.572
0.52498E-01 215.862
0.52698E-01 216.162
0.52998E-01 216.422
0.53197E-01 216.692
0.53397E-01 216.972
0.53698E-01 217.262
0.53998E-01 217.552
0.54298E-01 217.842
0.54598E-01 218.132
0.54898E-01 218.422
0.55198E-01 218.712
0.55498E-01 219.002
0.55798E-01 219.342
0.56198E-01 219.672
0.56498E-01 219.972
0.56798E-01 220.252
0.57098E-01 220.572
0.57398E-01 220.872
0.57798E-01 221.152
0.58099E-01 221.382
0.58398E-01 221.642
0.58699E-01 221.862
0.58999E-01 222.042
0.59198E-01 222.252
0.59599E-01 222.522
0.59799E-01 222.682
0.59999E-01 222.842
0.60199E-01 222.992
0.60399E-01 223.132
0.60599E-01 223.321
0.60899E-01 223.491
0.61199E-01 223.711
0.61398E-01 223.901
0.61699E-01 224.091
0.61999E-01 224.281
0.62199E-01 224.471
0.62499E-01 224.661
0.62799E-01 224.851
0.63099E-01 225.051
0.63299E-01 225.241
0.63599E-01 225.431
0.63899E-01 225.631
0.64099E-01 225.821
0.64299E-01 225.931
0.64499E-01 226.031
0.64599E-01 226.121
0.64799E-01 226.211
0.64999E-01 226.311
0.65199E-01 226.421
0.65299E-01 226.511
0.65499E-01 226.601
0.65699E-01 226.711
0.65900E-01 226.831
0.66099E-01 226.941
0.66199E-01 227.031
0.66399E-01 227.121
0.66600E-01 227.221
0.66799E-01 227.321
0.66899E-01 227.431
0.67099E-01 227.521
0.67299E-01 227.621
0.67399E-01 227.721
0.67700E-01 227.871
0.67900E-01 228.001
0.68100E-01 228.081
0.68400E-01 228.151
0.68499E-01 228.211
0.68699E-01 228.271
0.68899E-01 228.331
0.69099E-01 228.391
0.69299E-01 228.451
0.69499E-01 228.501
0.69699E-01 228.551
0.69799E-01 228.601
0.69999E-01 228.641
0.70200E-01 228.671
0.70299E-01 228.711
0.70499E-01 228.741
0.70699E-01 228.781
0.70899E-01 228.811
0.71099E-01 228.851
0.71299E-01 228.891
0.71500E-01 228.931
0.71800E-01 228.971
0.71999E-01 229.001
0.72200E-01 229.021
0.72399E-01 229.031
0.72499E-01 229.041
0.72800E-01 229.061
0.73000E-01 229.071
0.73200E-01 229.091
0.73400E-01 229.121
0.73700E-01 229.161
0.73999E-01 229.211
0.74300E-01 229.231
0.74500E-01 229.261
0.74699E-01 229.311
0.75000E-01 229.351
0.75200E-01 229.391
0.75399E-01 229.431
0.75600E-01 229.461
0.75800E-01 229.501
0.75899E-01 229.531
0.76099E-01 229.561
0.76299E-01 229.591
0.76599E-01 229.641
0.77000E-01 229.721
0.77200E-01 229.762
0.77400E-01 229.812
0.77700E-01 229.842
0.77900E-01 229.892
0.78200E-01 229.932
0.78400E-01 229.982
0.78700E-01 230.032
0.78899E-01 230.061
0.79098E-01 230.101
0.79298E-01 230.131
0.79497E-01 230.161
0.79697E-01 230.200
0.79896E-01 230.240
0.80096E-01 230.290
0.80295E-01 230.339
0.80494E-01 230.399
0.80693E-01 230.448
0.80894E-01 230.489
0.81094E-01 230.539
0.81294E-01 230.589
0.81494E-01 230.629
0.81694E-01 230.679
0.81894E-01 230.729
0.82094E-01 230.779
0.82396E-01 230.839
0.82596E-01 230.890
0.82796E-01 230.940
0.82996E-01 230.990
0.83197E-01 231.030
0.83397E-01 231.070
0.83597E-01 231.110
0.83798E-01 231.150
0.83997E-01 231.190
0.84097E-01 231.230
0.84298E-01 231.260
0.84499E-01 231.300
0.84598E-01 231.330
0.84798E-01 231.370
0.84999E-01 231.400
0.85098E-01 231.440
0.85299E-01 231.480
0.85500E-01 231.510
0.85700E-01 231.550
0.85801E-01 231.581
0.86001E-01 231.621
K1
0.94389E-01 77.399
0.92987E-01 78.657
0.92187E-01 79.560
0.91482E-01 80.550
0.90171E-01 81.974
0.88887E-01 83.427
0.87677E-01 84.786
0.86456E-01 86.183
0.84469E-01 87.904
0.82520E-01 89.796
0.80526E-01 91.831
0.78633E-01 94.115
0.76875E-01 96.507
0.75295E-01 99.026
0.73696E-01 101.408
0.72256E-01 103.314
0.70858E-01 105.299
0.69507E-01 107.355
0.68294E-01 109.515
0.66475E-01 113.205
0.64876E-01 116.311
0.63316E-01 118.756
0.61916E-01 121.199
0.60637E-01 123.861
0.59514E-01 126.270
0.58394E-01 131.289
0.58897E-01 138.795
0.60376E-01 145.765
0.62877E-01 152.789
0.67012E-01 160.349
0.67092E-01 161.427
0.66692E-01 161.787
0.66386E-01 162.159
0.65887E-01 162.669
0.65581E-01 162.934
0.65384E-01 162.952
0.65286E-01 162.970
0.65087E-01 163.009
0.64788E-01 163.048
0.64589E-01 163.088
0.64390E-01 163.128
0.64190E-01 163.168
0.63990E-01 163.198
0.63791E-01 163.238
0.63591E-01 163.278
0.63391E-01 163.328
0.63190E-01 163.398
0.62991E-01 163.478
0.62891E-01 163.589
0.62691E-01 163.698
0.62592E-01 163.808
0.62391E-01 163.948
0.62191E-01 164.098
0.61991E-01 164.258
0.61791E-01 164.438
0.61591E-01 164.618
0.61391E-01 164.858
0.61091E-01 165.108
0.60891E-01 165.318
0.60590E-01 165.548
0.60390E-01 165.798
0.60191E-01 166.048
0.59991E-01 166.298
0.59792E-01 166.558
0.59491E-01 166.849
0.59291E-01 167.128
0.58991E-01 167.448
0.58791E-01 167.768
0.58491E-01 168.108
0.58291E-01 168.468
0.57991E-01 168.829
0.57791E-01 169.199
0.57591E-01 169.518
0.57391E-01 169.858
0.57192E-01 170.219
0.56992E-01 170.579
0.56792E-01 170.939
0.56592E-01 171.299
0.56392E-01 171.659
0.56192E-01 172.049
0.55992E-01 172.419
0.55791E-01 172.789
0.55692E-01 173.169
0.55492E-01 173.539
0.55291E-01 173.909
0.55193E-01 174.309
0.55093E-01 174.719
0.54892E-01 175.129
0.54692E-01 175.589
0.54492E-01 176.050
0.54393E-01 176.529
0.54192E-01 177.060
0.54092E-01 177.600
0.53892E-01 178.110
0.53792E-01 178.620
0.53693E-01 179.120
0.53593E-01 179.700
0.53393E-01 180.290
0.53293E-01 180.900
0.53194E-01 181.522
0.53094E-01 182.152
0.52993E-01 182.780
0.52896E-01 183.413
0.52791E-01 184.071
0.52792E-01 184.683
0.52690E-01 185.291
0.52592E-01 185.911
0.52592E-01 186.521
0.52592E-01 187.141
0.52592E-01 187.751
0.52593E-01 188.372
0.52593E-01 189.022
0.52592E-01 189.692
0.52593E-01 190.372
0.52693E-01 191.042
0.52693E-01 191.712
0.52793E-01 192.382
0.52893E-01 193.052
0.52893E-01 193.732
0.52993E-01 194.402
0.53093E-01 195.092
0.53193E-01 195.822
0.53293E-01 196.552
0.53493E-01 197.263
0.53594E-01 197.953
0.53794E-01 198.652
0.53994E-01 199.382
0.54094E-01 200.113
0.54294E-01 200.803
0.54494E-01 201.473
0.54694E-01 202.142
0.54994E-01 202.822
0.55194E-01 203.493
0.55394E-01 204.163
0.55694E-01 204.843
0.55894E-01 205.513
0.56094E-01 206.073
0.56395E-01 206.623
0.56595E-01 207.173
0.56895E-01 207.703
0.57095E-01 208.233
0.57395E-01 208.763
0.57595E-01 209.313
0.57895E-01 209.873
0.58195E-01 210.483
0.58495E-01 211.063
0.58795E-01 211.643
0.59195E-01 212.223
0.59495E-01 212.803
0.59896E-01 213.373
0.60296E-01 213.933
0.60595E-01 214.483
0.61096E-01 215.103
0.61496E-01 215.803
0.61895E-01 216.433
0.62296E-01 216.993
0.62796E-01 217.593
0.63196E-01 218.163
0.63596E-01 218.722
0.63996E-01 219.182
0.64396E-01 219.722
0.64796E-01 220.232
0.65096E-01 220.652
0.65496E-01 221.112
0.65896E-01 221.642
0.66196E-01 221.972
0.66396E-01 222.302
0.66696E-01 222.612
0.66996E-01 222.922
0.67397E-01 223.332
0.67696E-01 223.692
0.68096E-01 224.122
0.68497E-01 224.502
0.68897E-01 224.882
0.69297E-01 225.292
0.69697E-01 225.702
0.70097E-01 226.112
0.70497E-01 226.502
0.70997E-01 226.892
0.71397E-01 227.271
0.71797E-01 227.651
0.72197E-01 228.051
0.72597E-01 228.431
0.72897E-01 228.651
0.73197E-01 228.871
0.73397E-01 229.081
0.73697E-01 229.291
0.73897E-01 229.491
0.74298E-01 229.731
0.74598E-01 229.911
0.74898E-01 230.101
0.75197E-01 230.321
0.75597E-01 230.551
0.75897E-01 230.761
0.76197E-01 230.971
0.76497E-01 231.171
0.76897E-01 231.381
0.77197E-01 231.611
0.77597E-01 231.831
0.77898E-01 232.021
0.78198E-01 232.231
0.78498E-01 232.431
0.78898E-01 232.711
0.79298E-01 232.991
0.79698E-01 233.191
0.80098E-01 233.391
0.80398E-01 233.551
0.80698E-01 233.721
0.80897E-01 233.881
0.81197E-01 234.041
0.81397E-01 234.191
0.81698E-01 234.341
0.81897E-01 234.481
0.82097E-01 234.611
0.82297E-01 234.751
0.82497E-01 234.881
0.82697E-01 235.021
0.82897E-01 235.151
0.83097E-01 235.291
0.83297E-01 235.421
0.83497E-01 235.561
0.83697E-01 235.701
0.83897E-01 235.851
0.84097E-01 236.011
0.84297E-01 236.141
0.84497E-01 236.261
0.84597E-01 236.351
0.84797E-01 236.441
0.84897E-01 236.561
0.85098E-01 236.680
0.85298E-01 236.761
0.85498E-01 236.841
0.85798E-01 236.991
0.86098E-01 237.131
0.86298E-01 237.220
0.86498E-01 237.320
0.86697E-01 237.441
0.86998E-01 237.571
0.87198E-01 237.681
0.87498E-01 237.791
0.87698E-01 237.881
0.87898E-01 237.971
0.87997E-01 238.051
0.88197E-01 238.141
0.88397E-01 238.231
0.88798E-01 238.381
0.89298E-01 238.571
0.89598E-01 238.692
0.89998E-01 238.822
0.90198E-01 238.932
0.90598E-01 239.052
0.90898E-01 239.172
0.91298E-01 239.302
0.91598E-01 239.432
0.91896E-01 239.522
0.92095E-01 239.621
0.92396E-01 239.711
0.92694E-01 239.801
0.92894E-01 239.900
0.93193E-01 239.989
0.93493E-01 240.100
0.93793E-01 240.209
0.93991E-01 240.318
0.94290E-01 240.428
0.94491E-01 240.528
0.94790E-01 240.628
0.94991E-01 240.719
0.95291E-01 240.819
0.95592E-01 240.919
0.95791E-01 241.029
0.96091E-01 241.139
0.96392E-01 241.249
0.96692E-01 241.349
0.96993E-01 241.460
0.97293E-01 241.560
0.97594E-01 241.670
0.97794E-01 241.760
0.98095E-01 241.850
0.98295E-01 241.940
0.98595E-01 242.041
0.98795E-01 242.121
0.98995E-01 242.201
0.99195E-01 242.291
0.99496E-01 242.371
0.99696E-01 242.461
0.99896E-01 242.541
0.10010E+00 242.621
0.10040E+00 242.711
0.10060E+00 242.791
0.10080E+00 242.881
0.10100E+00 242.962
0.10130E+00 243.052
N2
0.11719E+00 322.801
0.11718E+00 322.942
0.11718E+00 323.042
0.11718E+00 323.143
0.11718E+00 323.305
0.11716E+00 323.455
0.11716E+00 323.604
0.11716E+00 323.754
0.11715E+00 323.961
0.11716E+00 324.180
0.11716E+00 324.401
0.11716E+00 324.640
0.11716E+00 324.882
0.11716E+00 325.120
0.11706E+00 325.350
0.11675E+00 325.566
0.11635E+00 325.797
0.11595E+00 326.018
0.11565E+00 326.237
0.11506E+00 326.617
0.11416E+00 326.917
0.11304E+00 327.142
0.11194E+00 327.362
0.11084E+00 327.589
0.10983E+00 327.779
0.10811E+00 327.827
0.10561E+00 327.277
0.10319E+00 326.724
0.10059E+00 326.094
0.97578E-01 325.283
0.96983E-01 325.416
0.96783E-01 325.636
0.96585E-01 325.866
0.96285E-01 326.156
0.95984E-01 326.436
0.95785E-01 326.685
0.95586E-01 326.905
0.95287E-01 327.305
0.94887E-01 327.654
0.94487E-01 328.014
0.94088E-01 328.374
0.93688E-01 328.724
0.93288E-01 329.074
0.92989E-01 329.384
0.92590E-01 329.694
0.92190E-01 329.984
0.91790E-01 330.255
0.91290E-01 330.524
0.90891E-01 330.774
0.90491E-01 330.984
0.90091E-01 331.204
0.89691E-01 331.425
0.89291E-01 331.635
0.88892E-01 331.855
0.88592E-01 332.075
0.88192E-01 332.285
0.87692E-01 332.545
0.87192E-01 332.795
0.86792E-01 332.995
0.86394E-01 333.186
0.85894E-01 333.386
0.85493E-01 333.536
0.85093E-01 333.676
0.84691E-01 333.816
0.84292E-01 333.946
0.83793E-01 334.066
0.83292E-01 334.216
0.82893E-01 334.376
0.82393E-01 334.526
0.81893E-01 334.646
0.81393E-01 334.776
0.80893E-01 334.896
0.80493E-01 335.006
0.79993E-01 335.106
0.79594E-01 335.186
0.79094E-01 335.256
0.78593E-01 335.336
0.78093E-01 335.406
0.77593E-01 335.476
0.77093E-01 335.556
0.76593E-01 335.616
0.76094E-01 335.686
0.75493E-01 335.736
0.74992E-01 335.766
0.74493E-01 335.806
0.73994E-01 335.836
0.73494E-01 335.866
0.72893E-01 335.906
0.72294E-01 335.946
0.71694E-01 335.976
0.70993E-01 336.016
0.70394E-01 336.016
0.69693E-01 336.015
0.69093E-01 336.016
0.68393E-01 336.015
0.67794E-01 336.015
0.67094E-01 335.975
0.66394E-01 335.935
0.65594E-01 335.915
0.64894E-01 335.915
0.64094E-01 335.915
0.63394E-01 335.875
0.62594E-01 335.835
0.61794E-01 335.795
0.61094E-01 335.755
0.60393E-01 335.705
0.59594E-01 335.634
0.58893E-01 335.554
0.58094E-01 335.484
0.57394E-01 335.404
0.56594E-01 335.324
0.55894E-01 335.214
0.55094E-01 335.094
0.54294E-01 335.003
0.53494E-01 334.924
0.52693E-01 334.844
0.51793E-01 334.693
0.50994E-01 334.533
0.50194E-01 334.403
0.49294E-01 334.283
0.48494E-01 334.163
0.47593E-01 333.962
0.46694E-01 333.762
0.45794E-01 333.542
0.44894E-01 333.302
0.43994E-01 333.052
0.42994E-01 332.742
0.41993E-01 332.421
0.41094E-01 332.111
0.40194E-01 331.801
0.39294E-01 331.470
0.38294E-01 331.050
0.37293E-01 330.620
0.36294E-01 330.179
0.35394E-01 329.719
0.34394E-01 329.228
0.33594E-01 328.798
0.32895E-01 328.338
0.32095E-01 327.868
0.31194E-01 327.317
0.30394E-01 326.747
0.29494E-01 326.136
0.28694E-01 325.436
0.27895E-01 324.695
0.26994E-01 323.824
0.25995E-01 322.823
0.25095E-01 321.743
0.24095E-01 320.551
0.23195E-01 319.170
0.22195E-01 317.679
0.21296E-01 316.038
0.20296E-01 314.216
0.19296E-01 311.905
0.18096E-01 308.682
0.17097E-01 305.398
0.16197E-01 302.015
0.15398E-01 297.954
0.14699E-01 293.583
0.14000E-01 288.542
0.13500E-01 284.052
0.13101E-01 278.360
0.12802E-01 272.629
0.12703E-01 267.640
0.12704E-01 262.232
0.12805E-01 255.976
0.13005E-01 252.198
0.13205E-01 248.522
0.13506E-01 244.844
0.13806E-01 241.306
0.14406E-01 236.840
0.15007E-01 233.103
0.15806E-01 228.935
0.16707E-01 225.518
0.17506E-01 222.430
0.18506E-01 219.722
0.19506E-01 217.293
0.20606E-01 215.104
0.21707E-01 213.115
0.22806E-01 211.315
0.23905E-01 209.697
0.25005E-01 208.277
0.26104E-01 206.957
0.27204E-01 205.788
0.27905E-01 205.137
0.28504E-01 204.548
0.29105E-01 204.017
0.29704E-01 203.487
0.30305E-01 202.997
0.31004E-01 202.428
0.31504E-01 201.988
0.32104E-01 201.558
0.32804E-01 201.068
0.33504E-01 200.568
0.34104E-01 200.118
0.34704E-01 199.728
0.35204E-01 199.358
0.35704E-01 198.968
0.36303E-01 198.558
0.36903E-01 198.178
0.37504E-01 197.888
0.38103E-01 197.598
0.38703E-01 197.308
0.39603E-01 196.918
0.40503E-01 196.548
0.41403E-01 196.258
0.42303E-01 195.978
0.43002E-01 195.758
0.43803E-01 195.548
0.44603E-01 195.378
0.45303E-01 195.228
0.46103E-01 195.088
0.46803E-01 194.958
0.47504E-01 194.848
0.48204E-01 194.728
0.48904E-01 194.617
0.49605E-01 194.507
0.50305E-01 194.408
0.51106E-01 194.298
0.51805E-01 194.197
0.52506E-01 194.118
0.53606E-01 194.068
0.54706E-01 194.018
0.55806E-01 193.968
0.57005E-01 193.928
0.58106E-01 193.908
0.59406E-01 193.938
0.60306E-01 193.958
0.61206E-01 193.968
0.62405E-01 193.988
0.63704E-01 194.018
0.64504E-01 194.068
0.65403E-01 194.148
0.67103E-01 194.268
0.68703E-01 194.388
0.69702E-01 194.468
0.70802E-01 194.538
0.71801E-01 194.628
0.72801E-01 194.728
0.73601E-01 194.798
0.74502E-01 194.868
0.75201E-01 194.938
0.75901E-01 194.998
0.76600E-01 195.048
0.77299E-01 195.108
0.77999E-01 195.158
0.79100E-01 195.238
0.80703E-01 195.338
0.81604E-01 195.398
0.82603E-01 195.468
0.83503E-01 195.518
0.84504E-01 195.568
0.85503E-01 195.628
0.86502E-01 195.688
0.87602E-01 195.748
0.88397E-01 195.787
0.89192E-01 195.826
0.89890E-01 195.865
0.90687E-01 195.904
0.91484E-01 195.944
0.92280E-01 195.992
0.93080E-01 196.052
0.93978E-01 196.101
0.94774E-01 196.159
0.95672E-01 196.208
0.96373E-01 196.259
0.97173E-01 196.310
0.97874E-01 196.350
0.98674E-01 196.400
0.99576E-01 196.451
0.10037E+00 196.501
0.10128E+00 196.551
0.10218E+00 196.602
0.10298E+00 196.642
0.10388E+00 196.692
0.10478E+00 196.743
0.10559E+00 196.793
0.10639E+00 196.833
0.10709E+00 196.884
0.10789E+00 196.924
0.10859E+00 196.974
0.10929E+00 197.014
0.10999E+00 197.054
0.11069E+00 197.094
0.11129E+00 197.124
0.11199E+00 197.174
0.11269E+00 197.214
0.11340E+00 197.254
0.11410E+00 197.294
0.11470E+00 197.334
0.11540E+00 197.374
0.11611E+00 197.416
0.11681E+00 197.456
M2
0.49876E+00 344.813
0.49929E+00 344.911
0.49969E+00 344.961
0.50004E+00 345.032
0.50064E+00 345.113
0.50117E+00 345.216
0.50167E+00 345.294
0.50226E+00 345.384
0.50301E+00 345.501
0.50385E+00 345.628
0.50476E+00 345.770
0.50564E+00 345.908
0.50656E+00 346.051
0.50743E+00 346.179
0.50773E+00 346.320
0.50659E+00 346.454
0.50549E+00 346.594
0.50437E+00 346.727
0.50337E+00 346.865
0.50152E+00 347.104
0.49832E+00 347.274
0.49353E+00 347.379
0.48913E+00 347.489
0.48462E+00 347.597
0.48056E+00 347.696
0.47354E+00 347.506
0.46364E+00 346.526
0.45405E+00 345.541
0.44404E+00 344.451
0.43241E+00 343.055
0.43023E+00 343.109
0.42923E+00 343.309
0.42823E+00 343.509
0.42683E+00 343.779
0.42563E+00 344.049
0.42464E+00 344.299
0.42384E+00 344.519
0.42224E+00 344.908
0.42054E+00 345.268
0.41885E+00 345.628
0.41705E+00 345.968
0.41535E+00 346.278
0.41365E+00 346.588
0.41175E+00 346.888
0.40996E+00 347.198
0.40816E+00 347.488
0.40636E+00 347.758
0.40446E+00 348.028
0.40266E+00 348.248
0.40096E+00 348.428
0.39926E+00 348.608
0.39756E+00 348.818
0.39576E+00 349.038
0.39417E+00 349.249
0.39247E+00 349.429
0.39086E+00 349.609
0.38877E+00 349.819
0.38657E+00 350.019
0.38477E+00 350.199
0.38308E+00 350.390
0.38118E+00 350.590
0.37957E+00 350.710
0.37797E+00 350.820
0.37626E+00 350.929
0.37436E+00 351.049
0.37247E+00 351.170
0.37057E+00 351.290
0.36857E+00 351.410
0.36657E+00 351.530
0.36457E+00 351.650
0.36267E+00 351.780
0.36057E+00 351.900
0.35877E+00 352.010
0.35687E+00 352.110
0.35497E+00 352.150
0.35297E+00 352.190
0.35097E+00 352.240
0.34887E+00 352.310
0.34687E+00 352.380
0.34467E+00 352.430
0.34267E+00 352.470
0.34057E+00 352.500
0.33847E+00 352.540
0.33627E+00 352.570
0.33407E+00 352.610
0.33187E+00 352.640
0.32967E+00 352.670
0.32747E+00 352.710
0.32487E+00 352.720
0.32227E+00 352.719
0.31967E+00 352.720
0.31697E+00 352.720
0.31437E+00 352.719
0.31157E+00 352.699
0.30887E+00 352.659
0.30607E+00 352.619
0.30297E+00 352.619
0.29987E+00 352.619
0.29667E+00 352.599
0.29357E+00 352.559
0.29037E+00 352.509
0.28707E+00 352.429
0.28377E+00 352.348
0.28047E+00 352.299
0.27727E+00 352.259
0.27417E+00 352.209
0.27107E+00 352.129
0.26787E+00 352.058
0.26467E+00 351.958
0.26137E+00 351.838
0.25807E+00 351.728
0.25477E+00 351.618
0.25137E+00 351.498
0.24797E+00 351.387
0.24447E+00 351.268
0.24097E+00 351.147
0.23737E+00 351.037
0.23387E+00 350.917
0.23027E+00 350.767
0.22657E+00 350.577
0.22277E+00 350.367
0.21887E+00 350.176
0.21497E+00 349.976
0.21107E+00 349.726
0.20707E+00 349.446
0.20297E+00 349.165
0.19887E+00 348.885
0.19477E+00 348.605
0.19067E+00 348.285
0.18657E+00 347.935
0.18247E+00 347.564
0.17827E+00 347.154
0.17417E+00 346.714
0.16997E+00 346.253
0.16577E+00 345.753
0.16157E+00 345.223
0.15797E+00 344.793
0.15447E+00 344.332
0.15097E+00 343.862
0.14737E+00 343.311
0.14377E+00 342.731
0.14018E+00 342.121
0.13648E+00 341.390
0.13278E+00 340.619
0.12878E+00 339.718
0.12458E+00 338.708
0.12048E+00 337.637
0.11638E+00 336.456
0.11218E+00 335.135
0.10818E+00 333.714
0.10408E+00 332.154
0.10008E+00 330.462
0.95583E-01 328.331
0.90484E-01 325.369
0.86086E-01 322.386
0.82388E-01 319.354
0.78591E-01 315.723
0.75294E-01 311.882
0.72298E-01 307.521
0.70100E-01 303.661
0.68104E-01 298.820
0.66608E-01 293.969
0.65811E-01 289.729
0.65314E-01 285.080
0.65417E-01 279.583
0.65719E-01 276.195
0.66320E-01 272.857
0.67221E-01 269.449
0.68423E-01 266.121
0.70424E-01 261.824
0.72625E-01 258.156
0.75827E-01 253.988
0.79027E-01 250.490
0.82526E-01 247.293
0.86425E-01 244.415
0.90425E-01 241.786
0.94624E-01 239.387
0.99225E-01 237.228
0.10392E+00 235.268
0.10872E+00 233.480
0.11332E+00 231.931
0.11821E+00 230.471
0.12282E+00 229.181
0.12562E+00 228.451
0.12822E+00 227.781
0.13072E+00 227.171
0.13332E+00 226.581
0.13582E+00 226.011
0.13891E+00 225.361
0.14121E+00 224.891
0.14371E+00 224.421
0.14662E+00 223.891
0.14972E+00 223.351
0.15242E+00 222.881
0.15462E+00 222.491
0.15682E+00 222.121
0.15911E+00 221.741
0.16171E+00 221.331
0.16421E+00 220.951
0.16671E+00 220.662
0.16941E+00 220.362
0.17211E+00 220.072
0.17591E+00 219.672
0.17971E+00 219.292
0.18381E+00 218.942
0.18801E+00 218.612
0.19141E+00 218.352
0.19481E+00 218.102
0.19831E+00 217.861
0.20181E+00 217.631
0.20531E+00 217.421
0.20871E+00 217.211
0.21181E+00 217.031
0.21491E+00 216.861
0.21821E+00 216.671
0.22152E+00 216.491
0.22482E+00 216.321
0.22812E+00 216.151
0.23142E+00 215.991
0.23502E+00 215.841
0.24012E+00 215.711
0.24513E+00 215.571
0.25062E+00 215.441
0.25612E+00 215.311
0.26142E+00 215.232
0.26722E+00 215.192
0.27162E+00 215.172
0.27592E+00 215.152
0.28172E+00 215.122
0.28751E+00 215.092
0.29161E+00 215.152
0.29601E+00 215.232
0.30371E+00 215.382
0.31151E+00 215.532
0.31660E+00 215.621
0.32160E+00 215.701
0.32640E+00 215.871
0.33110E+00 216.052
0.33500E+00 216.202
0.33890E+00 216.342
0.34230E+00 216.462
0.34560E+00 216.582
0.34879E+00 216.691
0.35208E+00 216.791
0.35538E+00 216.901
0.36079E+00 217.142
0.36810E+00 217.462
0.37261E+00 217.653
0.37730E+00 217.843
0.38130E+00 218.003
0.38590E+00 218.183
0.39070E+00 218.373
0.39570E+00 218.553
0.40070E+00 218.733
0.40437E+00 218.872
0.40815E+00 219.001
0.41184E+00 219.131
0.41562E+00 219.250
0.41931E+00 219.379
0.42299E+00 219.508
0.42709E+00 219.648
0.43107E+00 219.797
0.43516E+00 219.936
0.43914E+00 220.075
0.44275E+00 220.195
0.44635E+00 220.316
0.44995E+00 220.426
0.45345E+00 220.546
0.45766E+00 220.677
0.46176E+00 220.797
0.46596E+00 220.927
0.47007E+00 221.047
0.47428E+00 221.168
0.47839E+00 221.288
0.48260E+00 221.408
0.48661E+00 221.549
0.49021E+00 221.679
0.49372E+00 221.799
0.49733E+00 221.919
0.50093E+00 222.050
0.50403E+00 222.160
0.50724E+00 222.270
0.51044E+00 222.380
0.51365E+00 222.490
0.51685E+00 222.611
0.52015E+00 222.720
0.52336E+00 222.831
0.52666E+00 222.951
0.52987E+00 223.061
0.53307E+00 223.171
0.53642E+00 223.293
0.53962E+00 223.403
S2
0.13579E+00 17.062
0.13589E+00 17.178
0.13589E+00 17.258
0.13588E+00 17.337
0.13598E+00 17.459
0.13597E+00 17.578
0.13607E+00 17.688
0.13607E+00 17.807
0.13616E+00 17.966
0.13617E+00 18.133
0.13627E+00 18.315
0.13627E+00 18.493
0.13638E+00 18.676
0.13648E+00 18.867
0.13627E+00 19.027
0.13576E+00 19.122
0.13516E+00 19.231
0.13466E+00 19.345
0.13406E+00 19.443
0.13317E+00 19.633
0.13188E+00 19.703
0.13014E+00 19.656
0.12854E+00 19.616
0.12694E+00 19.575
0.12553E+00 19.532
0.12275E+00 19.119
0.11874E+00 17.870
0.11502E+00 16.595
0.11102E+00 15.136
0.10639E+00 13.224
0.10560E+00 13.119
0.10530E+00 13.209
0.10500E+00 13.310
0.10450E+00 13.440
0.10420E+00 13.589
0.10390E+00 13.770
0.10370E+00 13.910
0.10330E+00 14.190
0.10290E+00 14.389
0.10260E+00 14.589
0.10220E+00 14.809
0.10180E+00 15.039
0.10140E+00 15.270
0.10100E+00 15.430
0.10070E+00 15.590
0.10030E+00 15.750
0.99799E-01 15.900
0.99399E-01 16.050
0.99000E-01 16.210
0.98699E-01 16.350
0.98300E-01 16.490
0.97999E-01 16.600
0.97600E-01 16.700
0.97300E-01 16.810
0.96900E-01 16.920
0.96600E-01 17.031
0.96099E-01 17.140
0.95600E-01 17.241
0.95200E-01 17.321
0.94802E-01 17.401
0.94402E-01 17.481