 ASGS %StormName%
 %EnsembleID%
 1  20.0    1 50    1000.0      ! NFOVER - NONFATAL ERROR OVERRIDE OPTION
 1      ! NABOUT - ABREVIATED OUTPUT OPTION PARAMETER                           
%NSCREEN%   ! output frequency (in time steps) to STDOUT or adcirc.log
%IHOT%  ! IHOT - HOT START PARAMETER                                            
 2      ! ICS - COORDINATE SYSTEM SELECTION PARAMETER                           
 0      ! IM - MODEL SELECTION PARAMETER                                        
 1      ! NOLIBF - BOTTOM FRICTION TERM SELECTION PARAMETER                     
 2      ! NOLIFA - FINITE AMPLITUDE TERM SELECTION PARAMETER                    
 1      ! NOLICA - SPATIAL DERIVATIVE CONVECTIVE SELECTION PARAMETER            
 1      ! NOLICAT - TIME DERIVATIVE CONVECTIVE TERM SELECTION PARAMETER         
 2      ! NWP - VARIABLE BOTTOM FRICTION AND LATERAL VISCOSITY OPTION PARAMETER 
mannings_n_at_sea_floor
primitive_weighting_in_continuity_equation
 1      ! NCOR - VARIABLE CORIOLIS IN SPACE OPTION PARAMETER                    
 1      ! NTIP - TIDAL POTENTIAL OPTION PARAMETER                               
%NWS%    ! NWS - WIND STRESS AND BAROMETRIC PRESSURE OPTION PARAMETER            
 1      ! NRAMP - RAMP FUNCTION OPTION                                          
 9.81   ! G - ACCELERATION DUE TO GRAVITY - DETERMINES UNITS                    
 -3.0   ! TAU0 - WEIGHTING FACTOR IN GWCE                                       
%DT%    ! DT - TIME STEP (IN SECONDS)                                           
 0.00   ! STATIM - STARTING TIME (IN DAYS)                                      
 0.00   ! REFTIM - REFERENCE TIME (IN DAYS)                                     
%WTIMINC%       ! WTIMINC
%RNDAY% ! RNDAY - TOTAL LENGTH OF SIMULATION (IN DAYS)                          
 7.0    ! DRAMP - DURATION OF RAMP FUNCTION (IN DAYS)                           
 0.35 0.30 0.35        ! TIME WEIGHTING FACTORS FOR THE GWCE EQUATION          
 0.1  20  20  0.1      ! H0
 -79.0 35.0            ! SLAM0,SFEA0 - CENTER OF CPP PROJECTION (NOT USED IF IC
 0.0025                ! FFACTOR,HBREAK,FTHETA,GAMMA
 5.00                  ! ESL - LATERAL EDDY VISCOSITY COEFFICIENT; IGNORED IF N
 1.0                   ! CORI - CORIOLIS PARAMETER - IGNORED IF NCOR = 1       
 8                     ! NTIF - TOTAL NUMBER OF TIDAL POTENTIAL CONSTITUENTS
 Q1                    ! ALPHANUMERIC DESCRIPTION
 0.019256  0.000064958541129   0.695  %Q1NF% %Q1EQARG%
 O1  
 0.100514  0.000067597744151   0.695  %O1NF% %O1EQARG%
 P1  
 0.046843  0.000072522945975   0.706  %P1NF% %P1EQARG%
 K1  
 0.141565  0.000072921158358   0.736  %K1NF% %K1EQARG%
 N2  
 0.046398  0.000137879699487   0.693  %N2NF% %N2EQARG%
 M2  
 0.242334  0.000140518902509   0.693  %M2NF% %M2EQARG%
 S2  
 0.112841  0.000145444104333   0.693  %S2NF% %S2EQARG%
 K2  
 0.030704  0.000145842317201   0.693  %K2NF% %K2EQARG%
 8                      ! NBFR - TOTAL NUMBER OF FORCING FREQUENCIES ON OPEN BOUNDARY
 Q1                     ! ALPHANUMERIC DESCRIPTION OF OPEN BOUNDARY FORCING DATA
 0.000064958541129  %Q1NF% %Q1EQARG%
 O1  
 0.000067597744151  %O1NF% %O1EQARG%
 P1  
 0.000072522945975  %P1NF% %P1EQARG%
 K1  
 0.000072921158358  %K1NF% %K1EQARG%
 N2  
 0.000137879699487  %N2NF% %N2EQARG%
 M2  
 0.000140518902509  %M2NF% %M2EQARG%
 S2  
 0.000145444104333  %S2NF% %S2EQARG%
 K2  
 0.000145842317201  %K2NF% %K2EQARG%
Q1
0.016000 -145.500000
0.016000 -145.500000
0.016000 -146.200000
0.016000 -147.300000
0.016000 -148.100000
0.016000 -148.700000
0.015000 -149.500000
0.015000 -150.300000
0.015000 -150.900000
0.015000 -151.400000
0.015000 -151.800000
0.015000 -152.300000
0.015000 -152.700000
0.015000 -153.000000
0.015000 -153.200000
0.014000 -153.400000
0.014000 -153.600000
0.014000 -153.700000
0.014000 -153.700000
0.014000 -153.800000
0.014000 -153.900000
0.014000 -154.000000
0.014000 -154.100000
0.014000 -154.100000
0.013000 -154.200000
0.013000 -154.300000
0.013000 -154.400000
0.013000 -154.700000
0.013000 -155.000000
0.013000 -155.200000
0.013000 -155.500000
0.013000 -155.800000
0.013000 -156.200000
0.013000 -156.500000
0.013000 -156.700000
0.013000 -157.000000
0.013000 -157.400000
0.013000 -157.700000
0.013000 -158.000000
0.013000 -158.300000
0.013000 -158.600000
0.013000 -159.000000
0.013000 -159.300000
0.013000 -159.600000
0.012000 -160.000000
0.012000 -160.300000
0.012000 -160.700000
0.012000 -161.100000
0.012000 -161.500000
0.012000 -161.900000
0.012000 -162.400000
0.012000 -162.900000
0.012000 -163.400000
0.012000 -164.000000
0.012000 -164.600000
0.012000 -165.300000
0.011000 -166.000000
0.011000 -166.700000
0.011000 -167.500000
0.011000 -168.300000
0.011000 -169.200000
0.011000 -170.200000
0.011000 -171.300000
0.011000 -172.700000
0.010000 -174.300000
0.010000 -176.200000
0.010000 -178.300000
0.010000 179.600000
0.010000 177.500000
0.010000 175.400000
0.010000 173.300000
0.010000 171.200000
0.010000 169.100000
0.010000 167.100000
0.010000 165.300000
0.010000 163.700000
0.010000 162.400000
0.010000 161.200000
0.010000 160.200000
0.010000 159.300000
0.010000 158.500000
0.011000 157.700000
0.011000 157.100000
0.011000 156.500000
0.010000 157.100000
0.008000 173.500000
0.006000 -178.400000
0.006000 -170.700000
0.005000 -161.400000
0.005000 -151.400000
0.005000 -140.400000
0.006000 -130.000000
0.006000 -122.800000
O1
0.084000 -124.400000
0.084000 -124.400000
0.083000 -125.100000
0.082000 -126.200000
0.081000 -127.000000
0.081000 -127.600000
0.080000 -128.400000
0.079000 -129.100000
0.078000 -129.700000
0.077000 -130.300000
0.077000 -130.700000
0.076000 -131.100000
0.076000 -131.500000
0.075000 -131.800000
0.075000 -132.100000
0.074000 -132.200000
0.073000 -132.400000
0.073000 -132.500000
0.072000 -132.600000
0.072000 -132.800000
0.071000 -132.900000
0.071000 -133.100000
0.070000 -133.200000
0.070000 -133.300000
0.069000 -133.400000
0.069000 -133.500000
0.068000 -133.700000
0.068000 -134.000000
0.067000 -134.300000
0.067000 -134.700000
0.066000 -135.000000
0.066000 -135.400000
0.066000 -135.800000
0.065000 -136.200000
0.065000 -136.500000
0.064000 -136.800000
0.064000 -137.100000
0.063000 -137.400000
0.063000 -137.800000
0.062000 -138.100000
0.062000 -138.400000
0.062000 -138.700000
0.061000 -139.000000
0.061000 -139.300000
0.060000 -139.600000
0.060000 -139.900000
0.059000 -140.300000
0.059000 -140.700000
0.058000 -141.100000
0.058000 -141.500000
0.057000 -142.000000
0.057000 -142.500000
0.056000 -143.100000
0.056000 -143.700000
0.055000 -144.400000
0.054000 -145.200000
0.054000 -146.000000
0.053000 -146.900000
0.052000 -147.800000
0.052000 -148.800000
0.051000 -149.900000
0.050000 -151.000000
0.049000 -152.400000
0.049000 -154.200000
0.048000 -156.200000
0.047000 -158.700000
0.046000 -161.400000
0.046000 -164.100000
0.045000 -166.700000
0.045000 -169.200000
0.045000 -171.500000
0.045000 -173.800000
0.045000 -175.800000
0.046000 -177.600000
0.046000 -179.100000
0.047000 179.700000
0.047000 178.800000
0.048000 178.000000
0.049000 177.300000
0.050000 176.700000
0.050000 175.900000
0.051000 175.100000
0.052000 174.300000
0.052000 173.300000
0.049000 172.500000
0.024000 -179.700000
0.011000 -179.100000
0.002000 -134.500000
0.008000 -38.000000
0.015000 -41.400000
0.022000 -50.200000
0.026000 -52.800000
0.025000 -43.800000
P1
0.032000 -113.300000
0.032000 -113.300000
0.032000 -114.000000
0.032000 -115.300000
0.032000 -116.100000
0.032000 -116.700000
0.031000 -117.600000
0.031000 -118.400000
0.031000 -119.100000
0.030000 -119.700000
0.030000 -120.200000
0.030000 -120.700000
0.030000 -121.100000
0.029000 -121.500000
0.029000 -121.800000
0.029000 -122.000000
0.029000 -122.200000
0.029000 -122.400000
0.028000 -122.600000
0.028000 -122.800000
0.028000 -123.000000
0.028000 -123.200000
0.028000 -123.400000
0.028000 -123.600000
0.027000 -123.800000
0.027000 -124.000000
0.027000 -124.300000
0.027000 -124.700000
0.027000 -125.200000
0.026000 -125.700000
0.026000 -126.300000
0.026000 -127.000000
0.026000 -127.600000
0.026000 -128.100000
0.025000 -128.600000
0.025000 -129.100000
0.025000 -129.600000
0.025000 -130.200000
0.025000 -130.700000
0.024000 -131.200000
0.024000 -131.700000
0.024000 -132.300000
0.024000 -132.900000
0.024000 -133.500000
0.023000 -134.000000
0.023000 -134.700000
0.023000 -135.300000
0.023000 -136.000000
0.022000 -136.700000
0.022000 -137.500000
0.022000 -138.300000
0.022000 -139.200000
0.021000 -140.200000
0.021000 -141.300000
0.021000 -142.500000
0.020000 -143.700000
0.020000 -145.100000
0.020000 -146.600000
0.019000 -148.100000
0.019000 -149.700000
0.019000 -151.400000
0.018000 -153.200000
0.018000 -155.500000
0.018000 -158.100000
0.018000 -161.200000
0.017000 -164.800000
0.017000 -168.500000
0.017000 -172.100000
0.017000 -175.300000
0.018000 -178.300000
0.018000 179.000000
0.018000 176.600000
0.018000 174.400000
0.019000 172.600000
0.019000 171.200000
0.020000 170.200000
0.020000 169.400000
0.020000 168.800000
0.021000 168.400000
0.021000 168.100000
0.021000 167.900000
0.022000 167.600000
0.022000 167.300000
0.022000 166.900000
0.021000 166.200000
0.013000 156.100000
0.010000 139.400000
0.008000 121.300000
0.008000 101.600000
0.007000 80.400000
0.007000 57.200000
0.009000 36.000000
0.010000 23.700000
K1
0.101000 -113.500000
0.101000 -113.500000
0.100000 -114.100000
0.099000 -115.200000
0.098000 -115.900000
0.097000 -116.500000
0.096000 -117.300000
0.094000 -118.100000
0.093000 -118.800000
0.092000 -119.400000
0.091000 -119.900000
0.091000 -120.400000
0.090000 -120.800000
0.089000 -121.200000
0.089000 -121.600000
0.088000 -121.800000
0.088000 -122.100000
0.087000 -122.300000
0.087000 -122.600000
0.086000 -122.800000
0.086000 -123.100000
0.085000 -123.400000
0.084000 -123.700000
0.084000 -124.000000
0.083000 -124.200000
0.082000 -124.400000
0.082000 -124.700000
0.081000 -125.000000
0.080000 -125.400000
0.079000 -125.800000
0.078000 -126.200000
0.078000 -126.700000
0.077000 -127.200000
0.076000 -127.700000
0.076000 -128.200000
0.075000 -128.800000
0.074000 -129.300000
0.074000 -129.800000
0.073000 -130.300000
0.072000 -130.900000
0.072000 -131.400000
0.071000 -132.000000
0.070000 -132.600000
0.069000 -133.200000
0.069000 -133.800000
0.068000 -134.400000
0.067000 -135.100000
0.067000 -135.800000
0.066000 -136.500000
0.065000 -137.300000
0.064000 -138.200000
0.064000 -139.200000
0.063000 -140.200000
0.062000 -141.300000
0.061000 -142.600000
0.060000 -143.900000
0.059000 -145.300000
0.059000 -146.800000
0.058000 -148.400000
0.057000 -150.000000
0.056000 -151.800000
0.055000 -153.700000
0.054000 -156.000000
0.053000 -158.800000
0.053000 -162.100000
0.052000 -165.900000
0.052000 -169.800000
0.052000 -173.600000
0.053000 -177.100000
0.054000 179.700000
0.055000 176.600000
0.056000 173.800000
0.057000 171.300000
0.058000 169.200000
0.059000 167.400000
0.060000 166.100000
0.061000 165.200000
0.062000 164.500000
0.062000 164.100000
0.063000 163.900000
0.064000 163.700000
0.065000 163.500000
0.066000 163.100000
0.066000 162.400000
0.064000 160.700000
0.039000 142.500000
0.033000 119.400000
0.032000 99.500000
0.030000 81.000000
0.029000 62.200000
0.025000 41.900000
0.022000 36.800000
0.026000 53.400000
N2
0.110000 -149.900000
0.110000 -149.900000
0.107000 -150.700000
0.103000 -152.100000
0.100000 -153.000000
0.096000 -153.900000
0.092000 -155.100000
0.088000 -156.300000
0.084000 -157.300000
0.081000 -158.300000
0.079000 -159.100000
0.076000 -160.000000
0.074000 -160.800000
0.072000 -161.500000
0.069000 -161.700000
0.067000 -161.900000
0.064000 -162.000000
0.062000 -162.000000
0.060000 -161.800000
0.057000 -161.500000
0.055000 -161.000000
0.053000 -160.500000
0.052000 -160.000000
0.050000 -159.400000
0.048000 -158.800000
0.046000 -158.200000
0.044000 -157.600000
0.042000 -157.000000
0.040000 -156.400000
0.039000 -155.600000
0.037000 -154.400000
0.036000 -153.100000
0.034000 -151.800000
0.032000 -150.400000
0.031000 -149.100000
0.030000 -147.600000
0.028000 -146.100000
0.026000 -144.200000
0.025000 -142.100000
0.023000 -139.600000
0.022000 -136.500000
0.020000 -132.700000
0.019000 -128.200000
0.017000 -122.800000
0.016000 -116.400000
0.015000 -109.200000
0.015000 -101.200000
0.015000 -92.700000
0.015000 -84.200000
0.016000 -75.700000
0.017000 -67.400000
0.018000 -59.900000
0.020000 -53.600000
0.022000 -48.500000
0.024000 -44.200000
0.026000 -40.700000
0.029000 -37.800000
0.031000 -35.500000
0.034000 -33.600000
0.036000 -32.100000
0.039000 -30.900000
0.041000 -29.800000
0.044000 -28.900000
0.048000 -28.000000
0.052000 -27.400000
0.056000 -26.900000
0.060000 -26.600000
0.064000 -26.400000
0.068000 -26.400000
0.071000 -26.500000
0.074000 -26.700000
0.077000 -27.000000
0.079000 -27.500000
0.082000 -28.200000
0.084000 -28.800000
0.085000 -29.600000
0.087000 -30.400000
0.088000 -31.200000
0.090000 -32.100000
0.091000 -33.000000
0.092000 -34.000000
0.094000 -35.000000
0.094000 -35.900000
0.095000 -36.700000
0.097000 -36.200000
0.107000 -30.500000
0.111000 -29.600000
0.114000 -30.000000
0.117000 -30.800000
0.118000 -32.200000
0.117000 -34.200000
0.113000 -36.500000
0.109000 -37.500000
M2
0.501000 -137.800000
0.501000 -137.800000
0.491000 -138.200000
0.475000 -138.800000
0.459000 -139.200000
0.443000 -139.500000
0.425000 -140.100000
0.406000 -140.600000
0.391000 -141.000000
0.376000 -141.400000
0.363000 -141.700000
0.352000 -142.000000
0.341000 -142.300000
0.330000 -142.500000
0.318000 -142.600000
0.306000 -142.700000
0.294000 -142.700000
0.282000 -142.600000
0.270000 -142.400000
0.258000 -142.000000
0.247000 -141.500000
0.238000 -141.000000
0.229000 -140.500000
0.219000 -140.000000
0.209000 -139.700000
0.199000 -139.500000
0.190000 -139.300000
0.180000 -139.100000
0.170000 -138.900000
0.162000 -138.700000
0.155000 -138.200000
0.147000 -137.600000
0.139000 -136.800000
0.131000 -135.900000
0.123000 -134.800000
0.116000 -133.500000
0.108000 -132.000000
0.100000 -130.300000
0.092000 -128.300000
0.085000 -125.600000
0.077000 -122.200000
0.070000 -117.600000
0.063000 -111.700000
0.058000 -104.400000
0.054000 -95.700000
0.052000 -85.800000
0.052000 -75.400000
0.053000 -65.200000
0.057000 -55.900000
0.062000 -47.400000
0.069000 -39.700000
0.077000 -33.200000
0.087000 -28.100000
0.097000 -24.100000
0.108000 -20.800000
0.119000 -18.100000
0.131000 -15.900000
0.143000 -14.200000
0.154000 -12.700000
0.166000 -11.500000
0.178000 -10.400000
0.190000 -9.400000
0.204000 -8.500000
0.219000 -7.600000
0.236000 -6.900000
0.255000 -6.200000
0.274000 -5.800000
0.292000 -5.600000
0.308000 -5.600000
0.323000 -5.800000
0.337000 -6.100000
0.350000 -6.600000
0.362000 -7.100000
0.371000 -7.900000
0.380000 -8.500000
0.387000 -9.300000
0.394000 -10.000000
0.401000 -10.900000
0.407000 -11.700000
0.414000 -12.600000
0.419000 -13.600000
0.424000 -14.500000
0.428000 -15.400000
0.431000 -16.200000
0.440000 -16.300000
0.472000 -13.100000
0.484000 -12.900000
0.492000 -13.300000
0.495000 -13.900000
0.494000 -14.500000
0.489000 -15.300000
0.476000 -16.200000
0.461000 -16.900000
S2
0.183000 -107.300000
0.183000 -107.300000
0.178000 -108.000000
0.172000 -109.400000
0.165000 -110.300000
0.159000 -111.200000
0.152000 -112.700000
0.144000 -114.300000
0.138000 -115.700000
0.132000 -117.200000
0.128000 -118.300000
0.124000 -119.500000
0.120000 -120.600000
0.116000 -121.400000
0.112000 -121.700000
0.108000 -121.800000
0.104000 -121.900000
0.099000 -121.900000
0.096000 -121.700000
0.092000 -121.300000
0.088000 -120.800000
0.085000 -120.300000
0.082000 -119.700000
0.079000 -119.200000
0.076000 -118.700000
0.072000 -118.300000
0.069000 -118.000000
0.066000 -117.800000
0.063000 -118.000000
0.061000 -118.100000
0.058000 -118.000000
0.056000 -117.700000
0.054000 -117.400000
0.052000 -116.800000
0.049000 -116.100000
0.047000 -115.400000
0.045000 -114.800000
0.043000 -114.000000
0.041000 -113.000000
0.038000 -111.700000
0.036000 -110.100000
0.033000 -108.000000
0.031000 -105.500000
0.029000 -102.400000
0.027000 -98.600000
0.025000 -94.000000
0.023000 -88.600000
0.022000 -82.300000
0.021000 -75.200000
0.020000 -67.000000
0.019000 -57.700000
0.020000 -47.900000
0.020000 -38.500000
0.021000 -29.900000
0.023000 -22.200000
0.025000 -15.400000
0.027000 -9.800000
0.030000 -5.000000
0.032000 -1.100000
0.035000 2.200000
0.038000 5.100000
0.041000 7.600000
0.045000 10.100000
0.049000 12.400000
0.053000 14.400000
0.058000 16.200000
0.063000 17.600000
0.067000 18.700000
0.072000 19.500000
0.075000 20.000000
0.079000 20.200000
0.082000 20.300000
0.084000 20.000000
0.087000 19.600000
0.088000 19.300000
0.090000 18.800000
0.091000 18.300000
0.093000 17.800000
0.094000 17.200000
0.096000 16.700000
0.097000 16.000000
0.098000 15.400000
0.099000 14.800000
0.100000 14.200000
0.107000 13.900000
0.116000 18.500000
0.120000 20.500000
0.122000 21.200000
0.123000 21.400000
0.123000 21.300000
0.122000 21.000000
0.120000 20.700000
0.117000 20.500000
K2
0.047000 -109.200000
0.047000 -109.200000
0.046000 -109.700000
0.044000 -110.700000
0.042000 -111.300000
0.041000 -112.000000
0.039000 -113.200000
0.037000 -114.500000
0.036000 -115.700000
0.034000 -117.000000
0.033000 -118.100000
0.032000 -119.200000
0.031000 -120.300000
0.030000 -121.000000
0.029000 -121.200000
0.028000 -121.200000
0.027000 -121.100000
0.026000 -121.000000
0.025000 -120.600000
0.024000 -120.000000
0.023000 -119.400000
0.022000 -118.700000
0.021000 -118.000000
0.020000 -117.300000
0.019000 -116.700000
0.019000 -116.200000
0.018000 -115.700000
0.017000 -115.300000
0.016000 -114.900000
0.016000 -114.400000
0.015000 -113.600000
0.015000 -112.600000
0.014000 -111.600000
0.013000 -110.500000
0.013000 -109.400000
0.012000 -108.300000
0.012000 -107.300000
0.011000 -106.200000
0.011000 -104.900000
0.010000 -103.400000
0.010000 -101.500000
0.009000 -99.300000
0.008000 -96.800000
0.008000 -93.800000
0.007000 -90.200000
0.007000 -86.100000
0.007000 -81.300000
0.006000 -75.900000
0.006000 -69.600000
0.006000 -62.500000
0.006000 -54.400000
0.006000 -45.600000
0.006000 -37.100000
0.006000 -29.200000
0.006000 -22.100000
0.007000 -15.800000
0.008000 -10.500000
0.008000 -6.100000
0.009000 -2.400000
0.010000 0.600000
0.010000 3.200000
0.011000 5.600000
0.012000 7.800000
0.013000 9.900000
0.015000 11.700000
0.016000 13.300000
0.017000 14.700000
0.019000 15.700000
0.020000 16.400000
0.021000 16.900000
0.022000 17.300000
0.023000 17.400000
0.023000 17.300000
0.024000 16.900000
0.025000 16.700000
0.025000 16.300000
0.025000 15.800000
0.026000 15.300000
0.026000 14.700000
0.027000 14.100000
0.027000 13.400000
0.027000 12.700000
0.028000 12.000000
0.028000 11.600000
0.029000 13.000000
0.032000 23.100000
0.035000 25.400000
0.036000 25.800000
0.037000 25.400000
0.037000 24.500000
0.037000 23.500000
0.036000 22.700000
0.034000 22.800000
 100.0                 ! ANGINN : INNER ANGLE THRESHOLD                        
%FORT61%    ! NOUTE,TOUTSE,TOUTFE,NSPOOLE (UNIT  61)
%NUMELEVSTATIONS%    ! NSTAE - NUMBER OF ELEVATION RECORDING STATIONS
%FORT62%
%NUMVELSTATIONS%     ! NSTAV - NUMBER OF ELEVATION RECORDING STATIONS
%FORT7172%
%NUMMETSTATIONS%     ! NSTAM - NUMBER OF MET RECORDING STATIONS
%FORT63%             ! NOUTGE,TOUTSGE,TOUTFGE,NSPOOLGE (UNIT  63)
%FORT64%             ! NOUTGV,TOUTSGV,TOUTFGV,NSPOOLGV (UNIT  64)
%FORT7374%           ! NOUTGM,TOUTSGM,TOUTFGM,NSPOOLGM (UNIT  73,74)
 0                     ! NHARFR - NUMBER OF CONSTITUENTS TO BE INCLUDED IN THE 
 15.0  45.0  60  0.0    ! THAS,THAF,NHAINC,FMV - HARMONIC ANALYSIS PARAMETERS   
 0 0 0 0                ! NHASE,NHASV,NHAGE,NHAGV - CONTROL HARMONIC ANALYSIS AN
%NHSTAR% %NHSINC%       ! NHSTAR,NHSINC - HOT START FILE GENERATION PARAMETERS  
 1  0  1.00E-07  25  0  ! ITITER, ISLDIA, CONVCR, ITMAX, ILUMP - ALGEBRAIC SOLUT
CubaLT3              
Louisiana State University
LONI
ASGS Nowcast/Forecast
http://www.lsu.edu/ccr            
Model time is relative to UTC.
qb.loni.org           
CF
mbilsk3@lsu.edu                      
%CSYEAR%-%CSMONTH%-%CSDAY% %CSHOUR%:00:00
&SWANOutputControl SWAN_OutputHS=T, SWAN_OutputDIR=T, SWAN_OutputTM01=T, SWAN_OutputTPS=T, SWAN_OutputWIND=F,SWAN_OutputTM02=T, SWAN_OutputTMM10=T /
&inundationOutputControl inundationOutput=.true. /
